443372
  -OEChem-03231711183D

 32 32  0     1  0  0  0  0  0999 V2000
   -0.9775    0.7588   -1.9522 O   0  0  0  0  0  0  0  0  0  0  0  0
    3.9089    1.4885    0.8976 O   0  0  0  0  0  0  0  0  0  0  0  0
    4.4916   -1.1716    0.3399 O   0  0  0  0  0  0  0  0  0  0  0  0
   -3.0899    0.5721   -0.0050 N   0  0  0  0  0  0  0  0  0  0  0  0
   -0.7058    0.8367   -0.5534 C   0  0  1  0  0  0  0  0  0  0  0  0
   -1.7555    0.0460    0.2369 C   0  0  0  0  0  0  0  0  0  0  0  0
   -4.0893   -0.1847    0.7476 C   0  0  0  0  0  0  0  0  0  0  0  0
    0.6886    0.3014   -0.3121 C   0  0  0  0  0  0  0  0  0  0  0  0
   -4.0595   -1.6543    0.3373 C   0  0  0  0  0  0  0  0  0  0  0  0
   -5.4690    0.4220    0.5123 C   0  0  0  0  0  0  0  0  0  0  0  0
    1.6619    1.1506    0.1854 C   0  0  0  0  0  0  0  0  0  0  0  0
    0.9611   -1.0258   -0.5951 C   0  0  0  0  0  0  0  0  0  0  0  0
    2.9476    0.6572    0.4069 C   0  0  0  0  0  0  0  0  0  0  0  0
    2.2468   -1.5192   -0.3736 C   0  0  0  0  0  0  0  0  0  0  0  0
    3.2400   -0.6777    0.1275 C   0  0  0  0  0  0  0  0  0  0  0  0
   -0.7550    1.8967   -0.2739 H   0  0  0  0  0  0  0  0  0  0  0  0
   -1.5137    0.0771    1.3067 H   0  0  0  0  0  0  0  0  0  0  0  0
   -1.7055   -0.9934   -0.0964 H   0  0  0  0  0  0  0  0  0  0  0  0
   -3.8779   -0.1125    1.8223 H   0  0  0  0  0  0  0  0  0  0  0  0
   -3.1270    1.5549    0.2642 H   0  0  0  0  0  0  0  0  0  0  0  0
   -4.9436   -2.1742    0.7251 H   0  0  0  0  0  0  0  0  0  0  0  0
   -4.0669   -1.7745   -0.7522 H   0  0  0  0  0  0  0  0  0  0  0  0
   -3.1944   -2.1862    0.7456 H   0  0  0  0  0  0  0  0  0  0  0  0
   -5.4961    1.4724    0.8233 H   0  0  0  0  0  0  0  0  0  0  0  0
   -6.2315   -0.1125    1.0892 H   0  0  0  0  0  0  0  0  0  0  0  0
   -5.7531    0.3745   -0.5451 H   0  0  0  0  0  0  0  0  0  0  0  0
    1.4327    2.1904    0.4028 H   0  0  0  0  0  0  0  0  0  0  0  0
    0.2085   -1.6936   -1.0025 H   0  0  0  0  0  0  0  0  0  0  0  0
   -1.8898    1.0673   -2.0881 H   0  0  0  0  0  0  0  0  0  0  0  0
    2.4694   -2.5591   -0.5970 H   0  0  0  0  0  0  0  0  0  0  0  0
    3.5260    2.3726    1.0306 H   0  0  0  0  0  0  0  0  0  0  0  0
    5.0488   -0.4535    0.6874 H   0  0  0  0  0  0  0  0  0  0  0  0
  1  5  1  0  0  0  0
  1 29  1  0  0  0  0
  2 13  1  0  0  0  0
  2 31  1  0  0  0  0
  3 15  1  0  0  0  0
  3 32  1  0  0  0  0
  4  6  1  0  0  0  0
  4  7  1  0  0  0  0
  4 20  1  0  0  0  0
  5  6  1  0  0  0  0
  5  8  1  0  0  0  0
  5 16  1  0  0  0  0
  6 17  1  0  0  0  0
  6 18  1  0  0  0  0
  7  9  1  0  0  0  0
  7 10  1  0  0  0  0
  7 19  1  0  0  0  0
  8 11  2  0  0  0  0
  8 12  1  0  0  0  0
  9 21  1  0  0  0  0
  9 22  1  0  0  0  0
  9 23  1  0  0  0  0
 10 24  1  0  0  0  0
 10 25  1  0  0  0  0
 10 26  1  0  0  0  0
 11 13  1  0  0  0  0
 11 27  1  0  0  0  0
 12 14  2  0  0  0  0
 12 28  1  0  0  0  0
 13 15  2  0  0  0  0
 14 15  1  0  0  0  0
 14 30  1  0  0  0  0
M  END
> <PUBCHEM_COMPOUND_CID>
443372

> <PUBCHEM_CONFORMER_RMSD>
0.6

> <PUBCHEM_CONFORMER_DIVERSEORDER>
2
15
34
36
23
3
10
14
7
37
25
11
6
35
18
13
24
9
16
27
38
19
12
8
29
1
33
5
17
4
26
32
20
30
28
31
22
21

> <PUBCHEM_MMFF94_PARTIAL_CHARGES>
20
1 -0.68
11 -0.15
12 -0.15
13 0.08
14 -0.15
15 0.08
2 -0.53
20 0.36
27 0.15
28 0.15
29 0.4
3 -0.53
30 0.15
31 0.45
32 0.45
4 -0.9
5 0.42
6 0.27
7 0.27
8 -0.14

> <PUBCHEM_EFFECTIVE_ROTOR_COUNT>
4

> <PUBCHEM_PHARMACOPHORE_FEATURES>
8
1 1 acceptor
1 1 donor
1 2 donor
1 3 donor
1 4 cation
1 4 donor
3 7 9 10 hydrophobe
6 8 11 12 13 14 15 rings

> <PUBCHEM_HEAVY_ATOM_COUNT>
15

> <PUBCHEM_ATOM_DEF_STEREO_COUNT>
1

> <PUBCHEM_ATOM_UDEF_STEREO_COUNT>
0

> <PUBCHEM_BOND_DEF_STEREO_COUNT>
0

> <PUBCHEM_BOND_UDEF_STEREO_COUNT>
0

> <PUBCHEM_ISOTOPIC_ATOM_COUNT>
0

> <PUBCHEM_COMPONENT_COUNT>
1

> <PUBCHEM_CACTVS_TAUTO_COUNT>
10

> <PUBCHEM_CONFORMER_ID>
0006C3EC00000002

> <PUBCHEM_MMFF94_ENERGY>
25.8715

> <PUBCHEM_FEATURE_SELFOVERLAP>
40.603

> <PUBCHEM_SHAPE_FINGERPRINT>
10498660 4 12607139357099497523
114248 4 8358252636205205465
11543360 7 11025806422320259905
12251169 10 18201720643586069743
12507560 40 18412261705789231405
12670543 26 8790609251795212762
12916748 109 11815896769167878703
13675066 3 17417807301713547362
14115302 16 14779557802396701345
14252887 29 18259991465533775393
14993402 34 13406799900172519450
15219456 202 18335692819562998020
16945 1 18200014150590926158
17834072 33 17846211189996815935
19050596 39 18201721756103892651
19141452 34 18334298678301884539
20279233 1 18410018723891213579
20281475 54 18114186362641029335
20645477 70 18202000980602363983
20671657 53 13912322386828831631
21065199 12 18341899584635254155
21501925 9 18113901593361105541
21637258 2 16370993063471664666
21673915 165 18268427009148096907
22485316 2 18333731321284541827
22854114 59 18342739641177613529
23048698 100 17704077287018576051
231179 274 13110968582852777443
23402539 116 16153425008758347742
23532345 42 17821729463528292061
23557571 272 17604430691382074101
23559900 14 18411702088413492081
26918003 58 18342458127899553747
276578 36 15051739663684536582
31174 14 18408598171816082492
4047638 21 12679461988951974996
42 15 18410578375040563937
5104073 3 18341897415513584339
5374978 207 18272654532609045321
69090 78 18412825798478195035

> <PUBCHEM_SHAPE_MULTIPOLES>
286.1
9.82
1.49
0.98
7.86
0.33
-0.35
1.04
3.35
-0.66
0.06
0.13
-0.19
0.53

> <PUBCHEM_SHAPE_SELFOVERLAP>
580.884

> <PUBCHEM_SHAPE_VOLUME>
167.9

> <PUBCHEM_COORDINATE_TYPE>
2
5
10

$$$$
