13023332
  -OEChem-03231711423D

 44 46  0     1  0  0  0  0  0999 V2000
   -0.8669    1.2088   -1.1805 O   0  0  0  0  0  0  0  0  0  0  0  0
   -3.0906    0.4622   -2.7271 O   0  0  0  0  0  0  0  0  0  0  0  0
    3.2138    0.3470    0.8906 N   0  0  0  0  0  0  0  0  0  0  0  0
   -3.2502   -0.4454    0.8586 N   0  0  0  0  0  0  0  0  0  0  0  0
    1.2599    0.8216   -0.0736 C   0  0  0  0  0  0  0  0  0  0  0  0
   -3.2127    0.7236   -1.3260 C   0  0  1  0  0  0  0  0  0  0  0  0
    1.6364   -0.5123   -0.4307 C   0  0  0  0  0  0  0  0  0  0  0  0
    2.2636    1.3309    0.7507 C   0  0  0  0  0  0  0  0  0  0  0  0
   -3.0765   -0.6051   -0.5787 C   0  0  0  0  0  0  0  0  0  0  0  0
    2.8590   -0.7790    0.1860 C   0  0  0  0  0  0  0  0  0  0  0  0
    0.1544    1.6437   -0.3773 C   0  0  0  0  0  0  0  0  0  0  0  0
   -2.1569    1.7521   -0.9263 C   0  0  0  0  0  0  0  0  0  0  0  0
   -3.1722   -1.7309    1.5390 C   0  0  0  0  0  0  0  0  0  0  0  0
    2.2189    2.6224    1.2883 C   0  0  0  0  0  0  0  0  0  0  0  0
    0.0955    2.9374    0.1530 C   0  0  0  0  0  0  0  0  0  0  0  0
    1.0472   -1.5194   -1.2237 C   0  0  0  0  0  0  0  0  0  0  0  0
    3.5242   -2.0030    0.0504 C   0  0  0  0  0  0  0  0  0  0  0  0
    1.1137    3.4174    0.9733 C   0  0  0  0  0  0  0  0  0  0  0  0
   -3.3449   -1.5444    3.0437 C   0  0  0  0  0  0  0  0  0  0  0  0
   -1.8365   -2.3946    1.2189 C   0  0  0  0  0  0  0  0  0  0  0  0
    1.7003   -2.7485   -1.3686 C   0  0  0  0  0  0  0  0  0  0  0  0
    2.9205   -2.9846   -0.7400 C   0  0  0  0  0  0  0  0  0  0  0  0
   -4.2114    1.1451   -1.1647 H   0  0  0  0  0  0  0  0  0  0  0  0
   -2.1004   -1.0231   -0.8384 H   0  0  0  0  0  0  0  0  0  0  0  0
   -3.8239   -1.3032   -0.9785 H   0  0  0  0  0  0  0  0  0  0  0  0
   -2.3038    2.0095    0.1299 H   0  0  0  0  0  0  0  0  0  0  0  0
   -2.2756    2.6513   -1.5424 H   0  0  0  0  0  0  0  0  0  0  0  0
   -3.9834   -2.3845    1.1937 H   0  0  0  0  0  0  0  0  0  0  0  0
    4.0586    0.4391    1.4374 H   0  0  0  0  0  0  0  0  0  0  0  0
   -4.1492   -0.0051    1.0520 H   0  0  0  0  0  0  0  0  0  0  0  0
    3.0125    2.9976    1.9258 H   0  0  0  0  0  0  0  0  0  0  0  0
   -0.7171    3.6208   -0.0775 H   0  0  0  0  0  0  0  0  0  0  0  0
    0.1005   -1.3530   -1.7282 H   0  0  0  0  0  0  0  0  0  0  0  0
    4.4748   -2.1876    0.5398 H   0  0  0  0  0  0  0  0  0  0  0  0
    1.0534    4.4280    1.3693 H   0  0  0  0  0  0  0  0  0  0  0  0
   -3.3118   -2.5093    3.5611 H   0  0  0  0  0  0  0  0  0  0  0  0
   -2.5545   -0.9109    3.4620 H   0  0  0  0  0  0  0  0  0  0  0  0
   -4.3095   -1.0782    3.2736 H   0  0  0  0  0  0  0  0  0  0  0  0
   -1.8006   -2.8044    0.2045 H   0  0  0  0  0  0  0  0  0  0  0  0
   -1.6674   -3.2455    1.8898 H   0  0  0  0  0  0  0  0  0  0  0  0
   -0.9939   -1.7074    1.3570 H   0  0  0  0  0  0  0  0  0  0  0  0
    1.2495   -3.5257   -1.9800 H   0  0  0  0  0  0  0  0  0  0  0  0
    3.4117   -3.9461   -0.8655 H   0  0  0  0  0  0  0  0  0  0  0  0
   -2.1900    0.1326   -2.8895 H   0  0  0  0  0  0  0  0  0  0  0  0
  1 11  1  0  0  0  0
  1 12  1  0  0  0  0
  2  6  1  0  0  0  0
  2 44  1  0  0  0  0
  3  8  1  0  0  0  0
  3 10  1  0  0  0  0
  3 29  1  0  0  0  0
  4  9  1  0  0  0  0
  4 13  1  0  0  0  0
  4 30  1  0  0  0  0
  5  7  1  0  0  0  0
  5  8  2  0  0  0  0
  5 11  1  0  0  0  0
  6  9  1  0  0  0  0
  6 12  1  0  0  0  0
  6 23  1  0  0  0  0
  7 10  1  0  0  0  0
  7 16  2  0  0  0  0
  8 14  1  0  0  0  0
  9 24  1  0  0  0  0
  9 25  1  0  0  0  0
 10 17  2  0  0  0  0
 11 15  2  0  0  0  0
 12 26  1  0  0  0  0
 12 27  1  0  0  0  0
 13 19  1  0  0  0  0
 13 20  1  0  0  0  0
 13 28  1  0  0  0  0
 14 18  2  0  0  0  0
 14 31  1  0  0  0  0
 15 18  1  0  0  0  0
 15 32  1  0  0  0  0
 16 21  1  0  0  0  0
 16 33  1  0  0  0  0
 17 22  1  0  0  0  0
 17 34  1  0  0  0  0
 18 35  1  0  0  0  0
 19 36  1  0  0  0  0
 19 37  1  0  0  0  0
 19 38  1  0  0  0  0
 20 39  1  0  0  0  0
 20 40  1  0  0  0  0
 20 41  1  0  0  0  0
 21 22  2  0  0  0  0
 21 42  1  0  0  0  0
 22 43  1  0  0  0  0
M  END
> <PUBCHEM_COMPOUND_CID>
13023332

> <PUBCHEM_CONFORMER_RMSD>
0.8

> <PUBCHEM_CONFORMER_DIVERSEORDER>
3
49
6
79
67
51
33
56
10
59
41
60
57
28
32
21
63
38
74
19
48
18
27
29
64
37
70
80
76
17
22
47
69
39
40
73
78
20
25
53
16
34
52
68
1
2
31
8
66
50
11
26
62
13
81
46
5
36
7
44
35
77
55
30
12
45
71
24
14
43
4
58
42
61
9
54
65
23
15
72
75

> <PUBCHEM_MMFF94_PARTIAL_CHARGES>
28
1 -0.36
10 -0.15
11 0.08
12 0.28
13 0.27
14 -0.15
15 -0.15
16 -0.15
17 -0.15
18 -0.15
2 -0.68
21 -0.15
22 -0.15
29 0.27
3 0.03
30 0.36
31 0.15
32 0.15
33 0.15
34 0.15
35 0.15
4 -0.9
42 0.15
43 0.15
44 0.4
6 0.28
8 -0.15
9 0.27

> <PUBCHEM_EFFECTIVE_ROTOR_COUNT>
6

> <PUBCHEM_PHARMACOPHORE_FEATURES>
11
1 1 acceptor
1 2 acceptor
1 2 donor
1 3 cation
1 3 donor
1 4 cation
1 4 donor
3 13 19 20 hydrophobe
5 3 5 7 8 10 rings
6 5 8 11 14 15 18 rings
6 7 10 16 17 21 22 rings

> <PUBCHEM_HEAVY_ATOM_COUNT>
22

> <PUBCHEM_ATOM_DEF_STEREO_COUNT>
1

> <PUBCHEM_ATOM_UDEF_STEREO_COUNT>
0

> <PUBCHEM_BOND_DEF_STEREO_COUNT>
0

> <PUBCHEM_BOND_UDEF_STEREO_COUNT>
0

> <PUBCHEM_ISOTOPIC_ATOM_COUNT>
0

> <PUBCHEM_COMPONENT_COUNT>
1

> <PUBCHEM_CACTVS_TAUTO_COUNT>
1

> <PUBCHEM_CONFORMER_ID>
00C6B86400000003

> <PUBCHEM_MMFF94_ENERGY>
45.5623

> <PUBCHEM_FEATURE_SELFOVERLAP>
56.003

> <PUBCHEM_SHAPE_FINGERPRINT>
10064457 181 17407980132692877513
10305334 12 16320001897030247738
107951 10 16035250315059449199
1100329 8 16103606914477923059
11582403 64 16532493857696238293
11640471 11 16773529861914997243
12156800 1 15603510706625231363
12363563 72 18199178486671567238
12539773 59 16773216496806010463
12553582 1 18200875046177209086
12596599 1 16988838358795339614
12633257 1 18338527455165972043
12712778 12 17751344102592458170
12788726 201 17692247439683817872
13140716 1 17839707647543778624
13402501 40 18333731316900124611
14790565 3 18199175352037284448
14844126 61 17120274850843302694
15415430 2 18047753693828293639
15635459 17 18336260227913959979
17974551 9 18053419615117896089
19591789 44 18052533559159635068
1979834 28 17542813227087030275
20397935 3 17314526991571592267
20600515 1 17968930873759880116
20603629 256 17703498939829041914
20645477 70 18196342949452847109
20832881 197 18050274874508086765
21285901 2 17679850786021798799
21427221 339 16916243099455744411
23558518 356 17692809294884854144
238 59 18125973157239404471
2748010 2 18267569381551514972
445580 42 17614859413290854002
6438718 38 17268076744308668003
7987 15 18188224181389175635
81228 2 17765717923370050916
8809292 202 18050565145102721548
9709674 26 18337377301852822845
9981440 41 17694745865353083337

> <PUBCHEM_SHAPE_MULTIPOLES>
431.05
6.38
4.06
2.08
3
0.97
-0.36
-3.49
-1.2
-2.47
-0.68
2.71
-0.58
3.06

> <PUBCHEM_SHAPE_SELFOVERLAP>
925.639

> <PUBCHEM_SHAPE_VOLUME>
241.2

> <PUBCHEM_COORDINATE_TYPE>
2
5
10

$$$$
