tmp_mol_3_9.sdf
     RDKit          2D

138137  0  0  1  0  0  0  0  0999 V2000
    6.3301   -2.0600    0.0000 P   0  0  0  0  0  0  0  0  0  0  0  0
    5.4641   -2.5600    0.0000 O   0  0  0  0  0  0  0  0  0  0  0  0
    7.1962   -1.5600    0.0000 O   0  0  0  0  0  0  0  0  0  0  0  0
    9.7942   -2.0600    0.0000 O   0  0  0  0  0  0  0  0  0  0  0  0
    9.7942   -0.0600    0.0000 O   0  0  0  0  0  0  0  0  0  0  0  0
    5.8301   -1.1940    0.0000 O   0  0  0  0  0  0  0  0  0  0  0  0
    6.8301   -2.9260    0.0000 O   0  0  0  0  0  0  0  0  0  0  0  0
   10.6603   -0.5600    0.0000 O   0  0  0  0  0  0  0  0  0  0  0  0
    8.9282    1.4400    0.0000 O   0  0  0  0  0  0  0  0  0  0  0  0
    2.8660   -2.0600    0.0000 N   0  0  0  0  0  0  0  0  0  0  0  0
    3.7320   -2.5600    0.0000 C   0  0  0  0  0  0  0  0  0  0  0  0
    2.0000   -1.5600    0.0000 C   0  0  0  0  0  0  0  0  0  0  0  0
    2.3660   -2.9260    0.0000 C   0  0  0  0  0  0  0  0  0  0  0  0
    3.3660   -1.1940    0.0000 C   0  0  0  0  0  0  0  0  0  0  0  0
    4.5981   -2.0600    0.0000 C   0  0  0  0  0  0  0  0  0  0  0  0
   14.1244   -1.5600    0.0000 C   0  0  0  0  0  0  0  0  0  0  0  0
   14.9904   -2.0600    0.0000 C   0  0  0  0  0  0  0  0  0  0  0  0
   13.2583   -2.0600    0.0000 C   0  0  0  0  0  0  0  0  0  0  0  0
   11.5263    3.9400    0.0000 C   0  0  0  0  0  0  0  0  0  0  0  0
   12.3923    4.4400    0.0000 C   0  0  0  0  0  0  0  0  0  0  0  0
   19.3205   -4.5600    0.0000 C   0  0  0  0  0  0  0  0  0  0  0  0
   20.1865   -5.0600    0.0000 C   0  0  0  0  0  0  0  0  0  0  0  0
   15.8564   -1.5600    0.0000 C   0  0  0  0  0  0  0  0  0  0  0  0
   17.5885    7.4400    0.0000 C   0  0  0  0  0  0  0  0  0  0  0  0
   16.7224    6.9400    0.0000 C   0  0  0  0  0  0  0  0  0  0  0  0
   11.5263    2.9400    0.0000 C   0  0  0  0  0  0  0  0  0  0  0  0
   12.3923    5.4400    0.0000 C   0  0  0  0  0  0  0  0  0  0  0  0
   19.3205   -3.5600    0.0000 C   0  0  0  0  0  0  0  0  0  0  0  0
   20.1865   -6.0600    0.0000 C   0  0  0  0  0  0  0  0  0  0  0  0
   18.4545    6.9400    0.0000 C   0  0  0  0  0  0  0  0  0  0  0  0
   12.3923   -1.5600    0.0000 C   0  0  0  0  0  0  0  0  0  0  0  0
   15.8564    7.4400    0.0000 C   0  0  0  0  0  0  0  0  0  0  0  0
   10.6603    2.4400    0.0000 C   0  0  0  0  0  0  0  0  0  0  0  0
   16.7224   -2.0600    0.0000 C   0  0  0  0  0  0  0  0  0  0  0  0
   13.2583    5.9400    0.0000 C   0  0  0  0  0  0  0  0  0  0  0  0
   18.4545   -3.0600    0.0000 C   0  0  0  0  0  0  0  0  0  0  0  0
   21.0526   -6.5600    0.0000 C   0  0  0  0  0  0  0  0  0  0  0  0
   19.3205    7.4400    0.0000 C   0  0  0  0  0  0  0  0  0  0  0  0
   14.9904    6.9400    0.0000 C   0  0  0  0  0  0  0  0  0  0  0  0
   11.5263   -2.0600    0.0000 C   0  0  0  0  0  0  0  0  0  0  0  0
   10.6603    1.4400    0.0000 C   0  0  0  0  0  0  0  0  0  0  0  0
    8.9282   -1.5600    0.0000 C   0  0  0  0  0  0  0  0  0  0  0  0
   17.5885   -1.5600    0.0000 C   0  0  0  0  0  0  0  0  0  0  0  0
   18.4545   -2.0600    0.0000 C   0  0  0  0  0  0  0  0  0  0  0  0
   21.0526   -7.5600    0.0000 C   0  0  0  0  0  0  0  0  0  0  0  0
   13.2583    6.9400    0.0000 C   0  0  0  0  0  0  0  0  0  0  0  0
   20.1865    6.9400    0.0000 C   0  0  0  0  0  0  0  0  0  0  0  0
   14.1244    7.4400    0.0000 C   0  0  0  0  0  0  0  0  0  0  0  0
    8.0622   -2.0600    0.0000 C   0  0  0  0  0  0  0  0  0  0  0  0
    8.9282   -0.5600    0.0000 C   0  0  0  0  0  0  0  0  0  0  0  0
   10.6603   -1.5600    0.0000 C   0  0  0  0  0  0  0  0  0  0  0  0
    9.7942    0.9400    0.0000 C   0  0  0  0  0  0  0  0  0  0  0  0
   21.9186   -8.0600    0.0000 C   0  0  0  0  0  0  0  0  0  0  0  0
   21.0526    7.4400    0.0000 C   0  0  0  0  0  0  0  0  0  0  0  0
    3.3335   -3.0349    0.0000 H   0  0  0  0  0  0  0  0  0  0  0  0
    4.1306   -3.0349    0.0000 H   0  0  0  0  0  0  0  0  0  0  0  0
    2.3100   -1.0231    0.0000 H   0  0  0  0  0  0  0  0  0  0  0  0
    1.4631   -1.2500    0.0000 H   0  0  0  0  0  0  0  0  0  0  0  0
    1.8291   -2.6160    0.0000 H   0  0  0  0  0  0  0  0  0  0  0  0
    1.6900   -2.0969    0.0000 H   0  0  0  0  0  0  0  0  0  0  0  0
    2.0560   -3.4630    0.0000 H   0  0  0  0  0  0  0  0  0  0  0  0
    2.9030   -3.2360    0.0000 H   0  0  0  0  0  0  0  0  0  0  0  0
    3.9030   -1.5040    0.0000 H   0  0  0  0  0  0  0  0  0  0  0  0
    3.6760   -0.6570    0.0000 H   0  0  0  0  0  0  0  0  0  0  0  0
    2.8291   -0.8840    0.0000 H   0  0  0  0  0  0  0  0  0  0  0  0
    4.9966   -1.5850    0.0000 H   0  0  0  0  0  0  0  0  0  0  0  0
    4.1996   -1.5850    0.0000 H   0  0  0  0  0  0  0  0  0  0  0  0
   14.5229   -1.0850    0.0000 H   0  0  0  0  0  0  0  0  0  0  0  0
   13.7258   -1.0850    0.0000 H   0  0  0  0  0  0  0  0  0  0  0  0
   14.5919   -2.5349    0.0000 H   0  0  0  0  0  0  0  0  0  0  0  0
   15.3889   -2.5349    0.0000 H   0  0  0  0  0  0  0  0  0  0  0  0
   11.3142    4.5226    0.0000 H   0  0  0  0  0  0  0  0  0  0  0  0
   10.9157    3.8323    0.0000 H   0  0  0  0  0  0  0  0  0  0  0  0
   12.8598   -2.5349    0.0000 H   0  0  0  0  0  0  0  0  0  0  0  0
   13.6569   -2.5349    0.0000 H   0  0  0  0  0  0  0  0  0  0  0  0
   12.6044    3.8574    0.0000 H   0  0  0  0  0  0  0  0  0  0  0  0
   13.0029    4.5477    0.0000 H   0  0  0  0  0  0  0  0  0  0  0  0
   18.7099   -4.4523    0.0000 H   0  0  0  0  0  0  0  0  0  0  0  0
   19.1085   -5.1426    0.0000 H   0  0  0  0  0  0  0  0  0  0  0  0
   20.7971   -5.1677    0.0000 H   0  0  0  0  0  0  0  0  0  0  0  0
   20.3986   -4.4774    0.0000 H   0  0  0  0  0  0  0  0  0  0  0  0
   16.2549   -1.0850    0.0000 H   0  0  0  0  0  0  0  0  0  0  0  0
   15.4579   -1.0850    0.0000 H   0  0  0  0  0  0  0  0  0  0  0  0
   17.9870    7.9150    0.0000 H   0  0  0  0  0  0  0  0  0  0  0  0
   17.1899    7.9150    0.0000 H   0  0  0  0  0  0  0  0  0  0  0  0
   16.3239    6.4650    0.0000 H   0  0  0  0  0  0  0  0  0  0  0  0
   17.1210    6.4650    0.0000 H   0  0  0  0  0  0  0  0  0  0  0  0
   11.7383    2.3574    0.0000 H   0  0  0  0  0  0  0  0  0  0  0  0
   12.1369    3.0477    0.0000 H   0  0  0  0  0  0  0  0  0  0  0  0
   12.1803    6.0226    0.0000 H   0  0  0  0  0  0  0  0  0  0  0  0
   11.7817    5.3323    0.0000 H   0  0  0  0  0  0  0  0  0  0  0  0
   19.9311   -3.6677    0.0000 H   0  0  0  0  0  0  0  0  0  0  0  0
   19.5326   -2.9774    0.0000 H   0  0  0  0  0  0  0  0  0  0  0  0
   19.5760   -5.9523    0.0000 H   0  0  0  0  0  0  0  0  0  0  0  0
   19.9745   -6.6426    0.0000 H   0  0  0  0  0  0  0  0  0  0  0  0
   18.0560    6.4650    0.0000 H   0  0  0  0  0  0  0  0  0  0  0  0
   18.8530    6.4650    0.0000 H   0  0  0  0  0  0  0  0  0  0  0  0
   12.7908   -1.0850    0.0000 H   0  0  0  0  0  0  0  0  0  0  0  0
   11.9938   -1.0850    0.0000 H   0  0  0  0  0  0  0  0  0  0  0  0
   16.2549    7.9150    0.0000 H   0  0  0  0  0  0  0  0  0  0  0  0
   15.4579    7.9150    0.0000 H   0  0  0  0  0  0  0  0  0  0  0  0
   10.4482    3.0226    0.0000 H   0  0  0  0  0  0  0  0  0  0  0  0
   10.0497    2.3323    0.0000 H   0  0  0  0  0  0  0  0  0  0  0  0
   16.3239   -2.5349    0.0000 H   0  0  0  0  0  0  0  0  0  0  0  0
   17.1210   -2.5349    0.0000 H   0  0  0  0  0  0  0  0  0  0  0  0
   13.4704    5.3574    0.0000 H   0  0  0  0  0  0  0  0  0  0  0  0
   13.8689    6.0477    0.0000 H   0  0  0  0  0  0  0  0  0  0  0  0
   17.8439   -2.9523    0.0000 H   0  0  0  0  0  0  0  0  0  0  0  0
   18.2424   -3.6426    0.0000 H   0  0  0  0  0  0  0  0  0  0  0  0
   21.6631   -6.6677    0.0000 H   0  0  0  0  0  0  0  0  0  0  0  0
   21.2646   -5.9774    0.0000 H   0  0  0  0  0  0  0  0  0  0  0  0
   19.7190    7.9150    0.0000 H   0  0  0  0  0  0  0  0  0  0  0  0
   18.9220    7.9150    0.0000 H   0  0  0  0  0  0  0  0  0  0  0  0
   14.5919    6.4650    0.0000 H   0  0  0  0  0  0  0  0  0  0  0  0
   15.3889    6.4650    0.0000 H   0  0  0  0  0  0  0  0  0  0  0  0
   11.1278   -2.5349    0.0000 H   0  0  0  0  0  0  0  0  0  0  0  0
   11.9248   -2.5349    0.0000 H   0  0  0  0  0  0  0  0  0  0  0  0
   10.8723    0.8574    0.0000 H   0  0  0  0  0  0  0  0  0  0  0  0
   11.2708    1.5477    0.0000 H   0  0  0  0  0  0  0  0  0  0  0  0
    9.4651   -1.2500    0.0000 H   0  0  0  0  0  0  0  0  0  0  0  0
   17.5885   -0.9400    0.0000 H   0  0  0  0  0  0  0  0  0  0  0  0
   18.9914   -1.7500    0.0000 H   0  0  0  0  0  0  0  0  0  0  0  0
   20.4420   -7.4523    0.0000 H   0  0  0  0  0  0  0  0  0  0  0  0
   20.8405   -8.1426    0.0000 H   0  0  0  0  0  0  0  0  0  0  0  0
   12.7214    7.2500    0.0000 H   0  0  0  0  0  0  0  0  0  0  0  0
   19.7880    6.4650    0.0000 H   0  0  0  0  0  0  0  0  0  0  0  0
   20.5851    6.4650    0.0000 H   0  0  0  0  0  0  0  0  0  0  0  0
   14.1244    8.0600    0.0000 H   0  0  0  0  0  0  0  0  0  0  0  0
    7.6636   -2.5349    0.0000 H   0  0  0  0  0  0  0  0  0  0  0  0
    8.4607   -2.5349    0.0000 H   0  0  0  0  0  0  0  0  0  0  0  0
    8.7162    0.0226    0.0000 H   0  0  0  0  0  0  0  0  0  0  0  0
    8.3176   -0.6677    0.0000 H   0  0  0  0  0  0  0  0  0  0  0  0
   21.6086   -8.5969    0.0000 H   0  0  0  0  0  0  0  0  0  0  0  0
   22.4555   -8.3700    0.0000 H   0  0  0  0  0  0  0  0  0  0  0  0
   22.2286   -7.5231    0.0000 H   0  0  0  0  0  0  0  0  0  0  0  0
   21.3626    6.9031    0.0000 H   0  0  0  0  0  0  0  0  0  0  0  0
   21.5895    7.7500    0.0000 H   0  0  0  0  0  0  0  0  0  0  0  0
   20.7426    7.9769    0.0000 H   0  0  0  0  0  0  0  0  0  0  0  0
  1  2  1  0
  1  3  1  0
  1  6  1  0
  1  7  2  0
  2 15  1  0
  3 49  1  0
 42  4  1  0
  4 51  1  0
  5 50  1  0
  5 52  1  0
  8 51  2  0
  9 52  2  0
 10 11  1  0
 10 12  1  0
 10 13  1  0
 10 14  1  0
 11 15  1  0
 11 55  1  0
 11 56  1  0
 12 57  1  0
 12 58  1  0
 12 60  1  0
 13 59  1  0
 13 61  1  0
 13 62  1  0
 14 63  1  0
 14 64  1  0
 14 65  1  0
 15 66  1  0
 15 67  1  0
 16 17  1  0
 16 18  1  0
 16 68  1  0
 16 69  1  0
 17 23  1  0
 17 70  1  0
 17 71  1  0
 18 31  1  0
 18 74  1  0
 18 75  1  0
 19 20  1  0
 19 26  1  0
 19 72  1  0
 19 73  1  0
 20 27  1  0
 20 76  1  0
 20 77  1  0
 21 22  1  0
 21 28  1  0
 21 78  1  0
 21 79  1  0
 22 29  1  0
 22 80  1  0
 22 81  1  0
 23 34  1  0
 23 82  1  0
 23 83  1  0
 24 25  1  0
 24 30  1  0
 24 84  1  0
 24 85  1  0
 25 32  1  0
 25 86  1  0
 25 87  1  0
 26 33  1  0
 26 88  1  0
 26 89  1  0
 27 35  1  0
 27 90  1  0
 27 91  1  0
 28 36  1  0
 28 92  1  0
 28 93  1  0
 29 37  1  0
 29 94  1  0
 29 95  1  0
 30 38  1  0
 30 96  1  0
 30 97  1  0
 31 40  1  0
 31 98  1  0
 31 99  1  0
 32 39  1  0
 32100  1  0
 32101  1  0
 33 41  1  0
 33102  1  0
 33103  1  0
 34 43  1  0
 34104  1  0
 34105  1  0
 35 46  1  0
 35106  1  0
 35107  1  0
 36 44  1  0
 36108  1  0
 36109  1  0
 37 45  1  0
 37110  1  0
 37111  1  0
 38 47  1  0
 38112  1  0
 38113  1  0
 39 48  1  0
 39114  1  0
 39115  1  0
 40 51  1  0
 40116  1  0
 40117  1  0
 41 52  1  0
 41118  1  0
 41119  1  0
 42 49  1  0
 42 50  1  0
 42120  1  6
 43 44  2  0
 43121  1  0
 44122  1  0
 45 53  1  0
 45123  1  0
 45124  1  0
 46 48  2  0
 46125  1  0
 47 54  1  0
 47126  1  0
 47127  1  0
 48128  1  0
 49129  1  0
 49130  1  0
 50131  1  0
 50132  1  0
 53133  1  0
 53134  1  0
 53135  1  0
 54136  1  0
 54137  1  0
 54138  1  0
M  CHG  2   6  -1  10   1
M  END
>  <PUBCHEM_ATOM_DEF_STEREO_COUNT>  (1) 
1

>  <PUBCHEM_ATOM_UDEF_STEREO_COUNT>  (1) 
0

>  <PUBCHEM_BONDANNOTATIONS>  (1) 
42  4  5

>  <PUBCHEM_BOND_DEF_STEREO_COUNT>  (1) 
2

>  <PUBCHEM_BOND_UDEF_STEREO_COUNT>  (1) 
0

>  <PUBCHEM_CACTVS_COMPLEXITY>  (1) 
972

>  <PUBCHEM_CACTVS_HBOND_ACCEPTOR>  (1) 
8

>  <PUBCHEM_CACTVS_HBOND_DONOR>  (1) 
0

>  <PUBCHEM_CACTVS_ROTATABLE_BOND>  (1) 
42

>  <PUBCHEM_CACTVS_SUBSKEYS>  (1) 
AAADcfB+PAIAAAAAAAAAAAAAAAAAAAAAAAAAAAAAAAAAAAAAAAAAHgAAACAACBThgAYCCAMABRCIQCDSCIAAAAAgAAAICAEIAAgDABIAAQACAAAFgAAaAAOIyKCAAAAAAAAAAAAAAAAAAAAAAAAAAAAAAA==

>  <PUBCHEM_CACTVS_TAUTO_COUNT>  (1) 
1

>  <PUBCHEM_CACTVS_TPSA>  (1) 
111

>  <PUBCHEM_COMPONENT_COUNT>  (1) 
1

>  <PUBCHEM_COMPOUND_CANONICALIZED>  (1) 
1

>  <PUBCHEM_COMPOUND_CID>  (1) 
10350317

>  <PUBCHEM_COORDINATE_TYPE>  (1) 
1
5
255

>  <PUBCHEM_EXACT_MASS>  (1) 
785.593

>  <PUBCHEM_HEAVY_ATOM_COUNT>  (1) 
54

>  <PUBCHEM_ISOTOPIC_ATOM_COUNT>  (1) 
0

>  <PUBCHEM_IUPAC_CAS_NAME>  (1) 
[(2R)-2,3-bis[(Z)-1-oxooctadec-9-enoxy]propyl] 2-(trimethylammonio)ethyl phosphate

>  <PUBCHEM_IUPAC_INCHI>  (1) 
InChI=1S/C44H84NO8P/c1-6-8-10-12-14-16-18-20-22-24-26-28-30-32-34-36-43(46)50-40-42(41-52-54(48,49)51-39-38-45(3,4)5)53-44(47)37-35-33-31-29-27-25-23-21-19-17-15-13-11-9-7-2/h20-23,42H,6-19,24-41H2,1-5H3/b22-20-,23-21-/t42-/m1/s1

>  <PUBCHEM_IUPAC_INCHIKEY>  (1) 
SNKAWJBJQDLSFF-NVKMUCNASA-N

>  <PUBCHEM_IUPAC_NAME>  (1) 
[(2R)-2,3-bis[[(Z)-octadec-9-enoyl]oxy]propyl] 2-(trimethylazaniumyl)ethyl phosphate

>  <PUBCHEM_IUPAC_OPENEYE_NAME>  (1) 
[(2R)-2,3-bis[[(Z)-octadec-9-enoyl]oxy]propyl] 2-(trimethylammonio)ethyl phosphate

>  <PUBCHEM_IUPAC_SYSTEMATIC_NAME>  (1) 
[(2R)-2,3-bis[[(Z)-octadec-9-enoyl]oxy]propyl] 2-(trimethylazaniumyl)ethyl phosphate

>  <PUBCHEM_IUPAC_TRADITIONAL_NAME>  (1) 
[(2R)-2,3-bis[[(Z)-octadec-9-enoyl]oxy]propyl] 2-(trimethylammonio)ethyl phosphate

>  <PUBCHEM_MOLECULAR_FORMULA>  (1) 
C44H84NO8P

>  <PUBCHEM_MOLECULAR_WEIGHT>  (1) 
786.129

>  <PUBCHEM_MONOISOTOPIC_WEIGHT>  (1) 
785.593

>  <PUBCHEM_OPENEYE_CAN_SMILES>  (1) 
CCCCCCCCC=CCCCCCCCC(=O)OCC(COP(=O)([O-])OCC[N+](C)(C)C)OC(=O)CCCCCCCC=CCCCCCCCC

>  <PUBCHEM_OPENEYE_ISO_SMILES>  (1) 
CCCCCCCC/C=C\CCCCCCCC(=O)OC[C@H](COP(=O)([O-])OCC[N+](C)(C)C)OC(=O)CCCCCCC/C=C\CCCCCCCC

>  <PUBCHEM_TOTAL_CHARGE>  (1) 
0

>  <PUBCHEM_XLOGP3_AA>  (1) 
13.8

$$$$
