tmp_mol_7_9.sdf
     RDKit          2D

127126  0  0  1  0  0  0  0  0999 V2000
   15.8564   -0.2220    0.0000 P   0  0  0  0  0  0  0  0  0  0  0  0
   15.8564   -1.2220    0.0000 O   0  0  0  0  0  0  0  0  0  0  0  0
   15.8564    0.7780    0.0000 O   0  0  0  0  0  0  0  0  0  0  0  0
   17.5885    3.7780    0.0000 O   0  0  0  0  0  0  0  0  0  0  0  0
   14.9904    1.2780    0.0000 O   0  0  0  0  0  0  0  0  0  0  0  0
   14.8564   -0.2220    0.0000 O   0  0  0  0  0  0  0  0  0  0  0  0
   16.8564   -0.2220    0.0000 O   0  0  0  0  0  0  0  0  0  0  0  0
   14.1244   -3.2220    0.0000 N   0  0  0  0  0  0  0  0  0  0  0  0
   15.8564    2.7780    0.0000 N   0  0  0  0  0  0  0  0  0  0  0  0
    8.9282    2.7780    0.0000 C   0  0  0  0  0  0  0  0  0  0  0  0
    9.7942    2.2780    0.0000 C   0  0  0  0  0  0  0  0  0  0  0  0
    8.0622    2.2780    0.0000 C   0  0  0  0  0  0  0  0  0  0  0  0
   10.6603    2.7780    0.0000 C   0  0  0  0  0  0  0  0  0  0  0  0
    7.1962    2.7780    0.0000 C   0  0  0  0  0  0  0  0  0  0  0  0
   11.5263    2.2780    0.0000 C   0  0  0  0  0  0  0  0  0  0  0  0
    6.3301    2.2780    0.0000 C   0  0  0  0  0  0  0  0  0  0  0  0
   24.5167    2.7780    0.0000 C   0  0  0  0  0  0  0  0  0  0  0  0
   12.3923    2.7780    0.0000 C   0  0  0  0  0  0  0  0  0  0  0  0
   23.6506    2.2780    0.0000 C   0  0  0  0  0  0  0  0  0  0  0  0
   25.3827    2.2780    0.0000 C   0  0  0  0  0  0  0  0  0  0  0  0
    5.4641    2.7780    0.0000 C   0  0  0  0  0  0  0  0  0  0  0  0
   22.7846    2.7780    0.0000 C   0  0  0  0  0  0  0  0  0  0  0  0
   26.2487    2.7780    0.0000 C   0  0  0  0  0  0  0  0  0  0  0  0
   13.2583    2.2780    0.0000 C   0  0  0  0  0  0  0  0  0  0  0  0
   21.9186    2.2780    0.0000 C   0  0  0  0  0  0  0  0  0  0  0  0
   27.1147    2.2780    0.0000 C   0  0  0  0  0  0  0  0  0  0  0  0
    4.5981    2.2780    0.0000 C   0  0  0  0  0  0  0  0  0  0  0  0
   14.9904   -2.7220    0.0000 C   0  0  0  0  0  0  0  0  0  0  0  0
   21.0526    2.7780    0.0000 C   0  0  0  0  0  0  0  0  0  0  0  0
   27.9808    2.7780    0.0000 C   0  0  0  0  0  0  0  0  0  0  0  0
   16.7224    2.2780    0.0000 C   0  0  0  0  0  0  0  0  0  0  0  0
   14.1244    2.7780    0.0000 C   0  0  0  0  0  0  0  0  0  0  0  0
    3.7320    2.7780    0.0000 C   0  0  0  0  0  0  0  0  0  0  0  0
   17.5885    2.7780    0.0000 C   0  0  0  0  0  0  0  0  0  0  0  0
   13.2583   -3.7220    0.0000 C   0  0  0  0  0  0  0  0  0  0  0  0
   14.6244   -4.0880    0.0000 C   0  0  0  0  0  0  0  0  0  0  0  0
   13.6244   -2.3560    0.0000 C   0  0  0  0  0  0  0  0  0  0  0  0
   20.1865    2.2780    0.0000 C   0  0  0  0  0  0  0  0  0  0  0  0
   28.8468    2.2780    0.0000 C   0  0  0  0  0  0  0  0  0  0  0  0
   14.9904   -1.7220    0.0000 C   0  0  0  0  0  0  0  0  0  0  0  0
   16.7224    1.2780    0.0000 C   0  0  0  0  0  0  0  0  0  0  0  0
   14.9904    2.2780    0.0000 C   0  0  0  0  0  0  0  0  0  0  0  0
    2.8660    2.2780    0.0000 C   0  0  0  0  0  0  0  0  0  0  0  0
   18.4545    2.2780    0.0000 C   0  0  0  0  0  0  0  0  0  0  0  0
   19.3205    2.7780    0.0000 C   0  0  0  0  0  0  0  0  0  0  0  0
   29.7128    2.7780    0.0000 C   0  0  0  0  0  0  0  0  0  0  0  0
    2.0000    2.7780    0.0000 C   0  0  0  0  0  0  0  0  0  0  0  0
   30.5788    2.2780    0.0000 C   0  0  0  0  0  0  0  0  0  0  0  0
    9.3267    3.2530    0.0000 H   0  0  0  0  0  0  0  0  0  0  0  0
    8.5297    3.2530    0.0000 H   0  0  0  0  0  0  0  0  0  0  0  0
    9.3957    1.8031    0.0000 H   0  0  0  0  0  0  0  0  0  0  0  0
   10.1928    1.8031    0.0000 H   0  0  0  0  0  0  0  0  0  0  0  0
    7.6636    1.8031    0.0000 H   0  0  0  0  0  0  0  0  0  0  0  0
    8.4607    1.8031    0.0000 H   0  0  0  0  0  0  0  0  0  0  0  0
   11.0588    3.2530    0.0000 H   0  0  0  0  0  0  0  0  0  0  0  0
   10.2617    3.2530    0.0000 H   0  0  0  0  0  0  0  0  0  0  0  0
    7.5947    3.2530    0.0000 H   0  0  0  0  0  0  0  0  0  0  0  0
    6.7976    3.2530    0.0000 H   0  0  0  0  0  0  0  0  0  0  0  0
   11.1278    1.8031    0.0000 H   0  0  0  0  0  0  0  0  0  0  0  0
   11.9248    1.8031    0.0000 H   0  0  0  0  0  0  0  0  0  0  0  0
    5.9316    1.8031    0.0000 H   0  0  0  0  0  0  0  0  0  0  0  0
    6.7287    1.8031    0.0000 H   0  0  0  0  0  0  0  0  0  0  0  0
   24.9152    3.2530    0.0000 H   0  0  0  0  0  0  0  0  0  0  0  0
   24.1181    3.2530    0.0000 H   0  0  0  0  0  0  0  0  0  0  0  0
   12.7908    3.2530    0.0000 H   0  0  0  0  0  0  0  0  0  0  0  0
   11.9938    3.2530    0.0000 H   0  0  0  0  0  0  0  0  0  0  0  0
   23.2521    1.8031    0.0000 H   0  0  0  0  0  0  0  0  0  0  0  0
   24.0492    1.8031    0.0000 H   0  0  0  0  0  0  0  0  0  0  0  0
   24.9842    1.8031    0.0000 H   0  0  0  0  0  0  0  0  0  0  0  0
   25.7812    1.8031    0.0000 H   0  0  0  0  0  0  0  0  0  0  0  0
    5.8626    3.2530    0.0000 H   0  0  0  0  0  0  0  0  0  0  0  0
    5.0656    3.2530    0.0000 H   0  0  0  0  0  0  0  0  0  0  0  0
   23.1831    3.2530    0.0000 H   0  0  0  0  0  0  0  0  0  0  0  0
   22.3861    3.2530    0.0000 H   0  0  0  0  0  0  0  0  0  0  0  0
   26.6472    3.2530    0.0000 H   0  0  0  0  0  0  0  0  0  0  0  0
   25.8502    3.2530    0.0000 H   0  0  0  0  0  0  0  0  0  0  0  0
   12.8598    1.8031    0.0000 H   0  0  0  0  0  0  0  0  0  0  0  0
   13.6569    1.8031    0.0000 H   0  0  0  0  0  0  0  0  0  0  0  0
   21.5201    1.8031    0.0000 H   0  0  0  0  0  0  0  0  0  0  0  0
   22.3171    1.8031    0.0000 H   0  0  0  0  0  0  0  0  0  0  0  0
   26.7162    1.8031    0.0000 H   0  0  0  0  0  0  0  0  0  0  0  0
   27.5133    1.8031    0.0000 H   0  0  0  0  0  0  0  0  0  0  0  0
    4.1996    1.8031    0.0000 H   0  0  0  0  0  0  0  0  0  0  0  0
    4.9966    1.8031    0.0000 H   0  0  0  0  0  0  0  0  0  0  0  0
   15.2024   -3.3046    0.0000 H   0  0  0  0  0  0  0  0  0  0  0  0
   15.6010   -2.6143    0.0000 H   0  0  0  0  0  0  0  0  0  0  0  0
   21.4511    3.2530    0.0000 H   0  0  0  0  0  0  0  0  0  0  0  0
   20.6540    3.2530    0.0000 H   0  0  0  0  0  0  0  0  0  0  0  0
   28.3793    3.2530    0.0000 H   0  0  0  0  0  0  0  0  0  0  0  0
   27.5822    3.2530    0.0000 H   0  0  0  0  0  0  0  0  0  0  0  0
   16.1855    1.9680    0.0000 H   0  0  0  0  0  0  0  0  0  0  0  0
   14.5229    3.2530    0.0000 H   0  0  0  0  0  0  0  0  0  0  0  0
   13.7258    3.2530    0.0000 H   0  0  0  0  0  0  0  0  0  0  0  0
    4.1306    3.2530    0.0000 H   0  0  0  0  0  0  0  0  0  0  0  0
    3.3335    3.2530    0.0000 H   0  0  0  0  0  0  0  0  0  0  0  0
   18.1254    3.0880    0.0000 H   0  0  0  0  0  0  0  0  0  0  0  0
   14.1613   -2.0460    0.0000 H   0  0  0  0  0  0  0  0  0  0  0  0
   13.3144   -1.8190    0.0000 H   0  0  0  0  0  0  0  0  0  0  0  0
   13.0874   -2.6660    0.0000 H   0  0  0  0  0  0  0  0  0  0  0  0
   14.0874   -4.3980    0.0000 H   0  0  0  0  0  0  0  0  0  0  0  0
   14.9344   -4.6250    0.0000 H   0  0  0  0  0  0  0  0  0  0  0  0
   15.1613   -3.7780    0.0000 H   0  0  0  0  0  0  0  0  0  0  0  0
   12.9483   -3.1850    0.0000 H   0  0  0  0  0  0  0  0  0  0  0  0
   12.7214   -4.0320    0.0000 H   0  0  0  0  0  0  0  0  0  0  0  0
   13.5683   -4.2589    0.0000 H   0  0  0  0  0  0  0  0  0  0  0  0
   19.7880    1.8031    0.0000 H   0  0  0  0  0  0  0  0  0  0  0  0
   20.5851    1.8031    0.0000 H   0  0  0  0  0  0  0  0  0  0  0  0
   28.4483    1.8031    0.0000 H   0  0  0  0  0  0  0  0  0  0  0  0
   29.2453    1.8031    0.0000 H   0  0  0  0  0  0  0  0  0  0  0  0
   14.7783   -1.1394    0.0000 H   0  0  0  0  0  0  0  0  0  0  0  0
   14.3798   -1.8296    0.0000 H   0  0  0  0  0  0  0  0  0  0  0  0
   15.8564    3.3980    0.0000 H   0  0  0  0  0  0  0  0  0  0  0  0
   16.9345    0.6954    0.0000 H   0  0  0  0  0  0  0  0  0  0  0  0
   17.3330    1.3857    0.0000 H   0  0  0  0  0  0  0  0  0  0  0  0
    2.4675    1.8031    0.0000 H   0  0  0  0  0  0  0  0  0  0  0  0
    3.2646    1.8031    0.0000 H   0  0  0  0  0  0  0  0  0  0  0  0
   18.4545    1.6580    0.0000 H   0  0  0  0  0  0  0  0  0  0  0  0
   19.3205    3.3980    0.0000 H   0  0  0  0  0  0  0  0  0  0  0  0
   30.1113    3.2530    0.0000 H   0  0  0  0  0  0  0  0  0  0  0  0
   29.3143    3.2530    0.0000 H   0  0  0  0  0  0  0  0  0  0  0  0
    2.3100    3.3150    0.0000 H   0  0  0  0  0  0  0  0  0  0  0  0
    1.4631    3.0880    0.0000 H   0  0  0  0  0  0  0  0  0  0  0  0
    1.6900    2.2411    0.0000 H   0  0  0  0  0  0  0  0  0  0  0  0
   30.2688    1.7411    0.0000 H   0  0  0  0  0  0  0  0  0  0  0  0
   31.1158    1.9680    0.0000 H   0  0  0  0  0  0  0  0  0  0  0  0
   30.8888    2.8150    0.0000 H   0  0  0  0  0  0  0  0  0  0  0  0
   18.1254    4.0880    0.0000 H   0  0  0  0  0  0  0  0  0  0  0  0
  1  2  1  0
  1  3  1  0
  1  6  1  0
  1  7  2  0
  2 40  1  0
  3 41  1  0
 34  4  1  0
  4127  1  0
  5 42  2  0
  8 28  1  0
  8 35  1  0
  8 36  1  0
  8 37  1  0
 31  9  1  0
  9 42  1  0
  9112  1  0
 10 11  1  0
 10 12  1  0
 10 49  1  0
 10 50  1  0
 11 13  1  0
 11 51  1  0
 11 52  1  0
 12 14  1  0
 12 53  1  0
 12 54  1  0
 13 15  1  0
 13 55  1  0
 13 56  1  0
 14 16  1  0
 14 57  1  0
 14 58  1  0
 15 18  1  0
 15 59  1  0
 15 60  1  0
 16 21  1  0
 16 61  1  0
 16 62  1  0
 17 19  1  0
 17 20  1  0
 17 63  1  0
 17 64  1  0
 18 24  1  0
 18 65  1  0
 18 66  1  0
 19 22  1  0
 19 67  1  0
 19 68  1  0
 20 23  1  0
 20 69  1  0
 20 70  1  0
 21 27  1  0
 21 71  1  0
 21 72  1  0
 22 25  1  0
 22 73  1  0
 22 74  1  0
 23 26  1  0
 23 75  1  0
 23 76  1  0
 24 32  1  0
 24 77  1  0
 24 78  1  0
 25 29  1  0
 25 79  1  0
 25 80  1  0
 26 30  1  0
 26 81  1  0
 26 82  1  0
 27 33  1  0
 27 83  1  0
 27 84  1  0
 28 40  1  0
 28 85  1  0
 28 86  1  0
 29 38  1  0
 29 87  1  0
 29 88  1  0
 30 39  1  0
 30 89  1  0
 30 90  1  0
 31 34  1  0
 31 41  1  0
 31 91  1  1
 32 42  1  0
 32 92  1  0
 32 93  1  0
 33 43  1  0
 33 94  1  0
 33 95  1  0
 34 44  1  0
 34 96  1  6
 35103  1  0
 35104  1  0
 35105  1  0
 36100  1  0
 36101  1  0
 36102  1  0
 37 97  1  0
 37 98  1  0
 37 99  1  0
 38 45  1  0
 38106  1  0
 38107  1  0
 39 46  1  0
 39108  1  0
 39109  1  0
 40110  1  0
 40111  1  0
 41113  1  0
 41114  1  0
 43 47  1  0
 43115  1  0
 43116  1  0
 44 45  2  0
 44117  1  0
 45118  1  0
 46 48  1  0
 46119  1  0
 46120  1  0
 47121  1  0
 47122  1  0
 47123  1  0
 48124  1  0
 48125  1  0
 48126  1  0
M  CHG  2   6  -1   8   1
M  END
>  <PUBCHEM_ATOM_DEF_STEREO_COUNT>  (1) 
2

>  <PUBCHEM_ATOM_UDEF_STEREO_COUNT>  (1) 
0

>  <PUBCHEM_BONDANNOTATIONS>  (1) 
34  4  5
31  9  6

>  <PUBCHEM_BOND_DEF_STEREO_COUNT>  (1) 
1

>  <PUBCHEM_BOND_UDEF_STEREO_COUNT>  (1) 
0

>  <PUBCHEM_CACTVS_COMPLEXITY>  (1) 
796

>  <PUBCHEM_CACTVS_HBOND_ACCEPTOR>  (1) 
6

>  <PUBCHEM_CACTVS_HBOND_DONOR>  (1) 
2

>  <PUBCHEM_CACTVS_ROTATABLE_BOND>  (1) 
36

>  <PUBCHEM_CACTVS_SUBSKEYS>  (1) 
AAADcfB/OAIAAAAAAAAAAAAAAAAAAAAAAAAAAAAAAAAAAAAAAAAAHgAQCCAACDzhgAYCAAPAAxCIQCFSEIAAAAAgAAAICIEIAAgCFBIAgQAEUAAFlgCYEAMYiICAAAAAAAAAAAAAAAAAAAAAAAAAAAAAAA==

>  <PUBCHEM_CACTVS_TAUTO_COUNT>  (1) 
3

>  <PUBCHEM_CACTVS_TPSA>  (1) 
108

>  <PUBCHEM_COMPONENT_COUNT>  (1) 
1

>  <PUBCHEM_COMPOUND_CANONICALIZED>  (1) 
1

>  <PUBCHEM_COMPOUND_CID>  (1) 
92132401

>  <PUBCHEM_COORDINATE_TYPE>  (1) 
1
5
255

>  <PUBCHEM_EXACT_MASS>  (1) 
702.568

>  <PUBCHEM_HEAVY_ATOM_COUNT>  (1) 
48

>  <PUBCHEM_ISOTOPIC_ATOM_COUNT>  (1) 
0

>  <PUBCHEM_IUPAC_CAS_NAME>  (1) 
[(E,2S,3S)-3-hydroxy-2-(1-oxohexadecylamino)octadec-4-enyl] 2-(trimethylammonio)ethyl phosphate

>  <PUBCHEM_IUPAC_INCHI>  (1) 
InChI=1S/C39H79N2O6P/c1-6-8-10-12-14-16-18-20-22-24-26-28-30-32-38(42)37(36-47-48(44,45)46-35-34-41(3,4)5)40-39(43)33-31-29-27-25-23-21-19-17-15-13-11-9-7-2/h30,32,37-38,42H,6-29,31,33-36H2,1-5H3,(H-,40,43,44,45)/b32-30+/t37-,38-/m0/s1

>  <PUBCHEM_IUPAC_INCHIKEY>  (1) 
RWKUXQNLWDTSLO-BQGALCOVSA-N

>  <PUBCHEM_IUPAC_NAME>  (1) 
[(E,2S,3S)-2-(hexadecanoylamino)-3-hydroxyoctadec-4-enyl] 2-(trimethylazaniumyl)ethyl phosphate

>  <PUBCHEM_IUPAC_OPENEYE_NAME>  (1) 
[(E,2S,3S)-2-(hexadecanoylamino)-3-hydroxy-octadec-4-enyl] 2-(trimethylammonio)ethyl phosphate

>  <PUBCHEM_IUPAC_SYSTEMATIC_NAME>  (1) 
[(E,2S,3S)-2-(hexadecanoylamino)-3-oxidanyl-octadec-4-enyl] 2-(trimethylazaniumyl)ethyl phosphate

>  <PUBCHEM_IUPAC_TRADITIONAL_NAME>  (1) 
[(E,2S,3S)-3-hydroxy-2-palmitamido-octadec-4-enyl] 2-(trimethylammonio)ethyl phosphate

>  <PUBCHEM_MOLECULAR_FORMULA>  (1) 
C39H79N2O6P

>  <PUBCHEM_MOLECULAR_WEIGHT>  (1) 
703.043

>  <PUBCHEM_MONOISOTOPIC_WEIGHT>  (1) 
702.568

>  <PUBCHEM_OPENEYE_CAN_SMILES>  (1) 
CCCCCCCCCCCCCCCC(=O)NC(COP(=O)([O-])OCC[N+](C)(C)C)C(C=CCCCCCCCCCCCCC)O

>  <PUBCHEM_OPENEYE_ISO_SMILES>  (1) 
CCCCCCCCCCCCCCCC(=O)N[C@@H](COP(=O)([O-])OCC[N+](C)(C)C)[C@H](/C=C/CCCCCCCCCCCCC)O

>  <PUBCHEM_TOTAL_CHARGE>  (1) 
0

>  <PUBCHEM_XLOGP3_AA>  (1) 
12.3

$$$$
