tmp_mol_6_9.sdf
     RDKit          2D

142141  0  0  1  0  0  0  0  0999 V2000
    6.3301   -7.3170    0.0000 P   0  0  0  0  0  0  0  0  0  0  0  0
    5.4641   -7.8170    0.0000 O   0  0  0  0  0  0  0  0  0  0  0  0
    9.7942   -5.3170    0.0000 O   0  0  0  0  0  0  0  0  0  0  0  0
    7.1962   -6.8170    0.0000 O   0  0  0  0  0  0  0  0  0  0  0  0
    8.9282   -3.8170    0.0000 O   0  0  0  0  0  0  0  0  0  0  0  0
    9.7942   -7.3170    0.0000 O   0  0  0  0  0  0  0  0  0  0  0  0
    5.8301   -6.4510    0.0000 O   0  0  0  0  0  0  0  0  0  0  0  0
    6.8301   -8.1830    0.0000 O   0  0  0  0  0  0  0  0  0  0  0  0
   10.6603   -5.8170    0.0000 O   0  0  0  0  0  0  0  0  0  0  0  0
    2.8660   -7.3170    0.0000 N   0  0  0  0  0  0  0  0  0  0  0  0
   14.1244    2.1830    0.0000 C   0  0  0  0  0  0  0  0  0  0  0  0
   13.2583    1.6830    0.0000 C   0  0  0  0  0  0  0  0  0  0  0  0
   14.1244    3.1830    0.0000 C   0  0  0  0  0  0  0  0  0  0  0  0
   13.2583    0.6830    0.0000 C   0  0  0  0  0  0  0  0  0  0  0  0
   14.9904    3.6830    0.0000 C   0  0  0  0  0  0  0  0  0  0  0  0
   12.3923    0.1830    0.0000 C   0  0  0  0  0  0  0  0  0  0  0  0
   14.9904    4.6830    0.0000 C   0  0  0  0  0  0  0  0  0  0  0  0
   12.3923   -0.8170    0.0000 C   0  0  0  0  0  0  0  0  0  0  0  0
   15.8564    5.1830    0.0000 C   0  0  0  0  0  0  0  0  0  0  0  0
   11.5263   -1.3170    0.0000 C   0  0  0  0  0  0  0  0  0  0  0  0
   15.8564    6.1830    0.0000 C   0  0  0  0  0  0  0  0  0  0  0  0
   11.5263   -2.3170    0.0000 C   0  0  0  0  0  0  0  0  0  0  0  0
   16.7224    6.6830    0.0000 C   0  0  0  0  0  0  0  0  0  0  0  0
    3.7320   -7.8170    0.0000 C   0  0  0  0  0  0  0  0  0  0  0  0
   10.6603   -2.8170    0.0000 C   0  0  0  0  0  0  0  0  0  0  0  0
    2.0000   -6.8170    0.0000 C   0  0  0  0  0  0  0  0  0  0  0  0
    2.3660   -8.1830    0.0000 C   0  0  0  0  0  0  0  0  0  0  0  0
    3.3660   -6.4510    0.0000 C   0  0  0  0  0  0  0  0  0  0  0  0
   16.7224    7.6830    0.0000 C   0  0  0  0  0  0  0  0  0  0  0  0
   10.6603   -3.8170    0.0000 C   0  0  0  0  0  0  0  0  0  0  0  0
    4.5981   -7.3170    0.0000 C   0  0  0  0  0  0  0  0  0  0  0  0
   17.5885    8.1830    0.0000 C   0  0  0  0  0  0  0  0  0  0  0  0
    9.7942   -4.3170    0.0000 C   0  0  0  0  0  0  0  0  0  0  0  0
    8.9282   -6.8170    0.0000 C   0  0  0  0  0  0  0  0  0  0  0  0
    8.9282   -5.8170    0.0000 C   0  0  0  0  0  0  0  0  0  0  0  0
    8.0622   -7.3170    0.0000 C   0  0  0  0  0  0  0  0  0  0  0  0
   10.6603   -6.8170    0.0000 C   0  0  0  0  0  0  0  0  0  0  0  0
   11.5263   -7.3170    0.0000 C   0  0  0  0  0  0  0  0  0  0  0  0
   12.3923   -6.8170    0.0000 C   0  0  0  0  0  0  0  0  0  0  0  0
   13.2583   -7.3170    0.0000 C   0  0  0  0  0  0  0  0  0  0  0  0
   14.1244   -6.8170    0.0000 C   0  0  0  0  0  0  0  0  0  0  0  0
   14.1244   -5.8170    0.0000 C   0  0  0  0  0  0  0  0  0  0  0  0
   14.9904   -5.3170    0.0000 C   0  0  0  0  0  0  0  0  0  0  0  0
   14.9904   -4.3170    0.0000 C   0  0  0  0  0  0  0  0  0  0  0  0
   14.1244   -3.8170    0.0000 C   0  0  0  0  0  0  0  0  0  0  0  0
   14.1244   -2.8170    0.0000 C   0  0  0  0  0  0  0  0  0  0  0  0
   14.9904   -2.3170    0.0000 C   0  0  0  0  0  0  0  0  0  0  0  0
   15.8564   -2.8170    0.0000 C   0  0  0  0  0  0  0  0  0  0  0  0
   16.7224   -2.3170    0.0000 C   0  0  0  0  0  0  0  0  0  0  0  0
   17.5885   -2.8170    0.0000 C   0  0  0  0  0  0  0  0  0  0  0  0
   17.5885   -3.8170    0.0000 C   0  0  0  0  0  0  0  0  0  0  0  0
   18.4545   -4.3170    0.0000 C   0  0  0  0  0  0  0  0  0  0  0  0
   17.5885   -5.8170    0.0000 C   0  0  0  0  0  0  0  0  0  0  0  0
   18.4545   -5.3170    0.0000 C   0  0  0  0  0  0  0  0  0  0  0  0
   17.5885   -6.8170    0.0000 C   0  0  0  0  0  0  0  0  0  0  0  0
   18.4545   -7.3170    0.0000 C   0  0  0  0  0  0  0  0  0  0  0  0
   19.3205   -6.8170    0.0000 C   0  0  0  0  0  0  0  0  0  0  0  0
   20.1865   -7.3170    0.0000 C   0  0  0  0  0  0  0  0  0  0  0  0
   14.3364    1.6004    0.0000 H   0  0  0  0  0  0  0  0  0  0  0  0
   14.7349    2.2907    0.0000 H   0  0  0  0  0  0  0  0  0  0  0  0
   13.0463    2.2656    0.0000 H   0  0  0  0  0  0  0  0  0  0  0  0
   12.6477    1.5754    0.0000 H   0  0  0  0  0  0  0  0  0  0  0  0
   13.9123    3.7656    0.0000 H   0  0  0  0  0  0  0  0  0  0  0  0
   13.5138    3.0753    0.0000 H   0  0  0  0  0  0  0  0  0  0  0  0
   13.4704    0.1004    0.0000 H   0  0  0  0  0  0  0  0  0  0  0  0
   13.8689    0.7907    0.0000 H   0  0  0  0  0  0  0  0  0  0  0  0
   15.2024    3.1004    0.0000 H   0  0  0  0  0  0  0  0  0  0  0  0
   15.6010    3.7907    0.0000 H   0  0  0  0  0  0  0  0  0  0  0  0
   12.1803    0.7656    0.0000 H   0  0  0  0  0  0  0  0  0  0  0  0
   11.7817    0.0754    0.0000 H   0  0  0  0  0  0  0  0  0  0  0  0
   14.7783    5.2656    0.0000 H   0  0  0  0  0  0  0  0  0  0  0  0
   14.3798    4.5754    0.0000 H   0  0  0  0  0  0  0  0  0  0  0  0
   12.6044   -1.3996    0.0000 H   0  0  0  0  0  0  0  0  0  0  0  0
   13.0029   -0.7093    0.0000 H   0  0  0  0  0  0  0  0  0  0  0  0
   16.0685    4.6004    0.0000 H   0  0  0  0  0  0  0  0  0  0  0  0
   16.4670    5.2907    0.0000 H   0  0  0  0  0  0  0  0  0  0  0  0
   11.3142   -0.7344    0.0000 H   0  0  0  0  0  0  0  0  0  0  0  0
   10.9157   -1.4246    0.0000 H   0  0  0  0  0  0  0  0  0  0  0  0
   15.6444    6.7656    0.0000 H   0  0  0  0  0  0  0  0  0  0  0  0
   15.2458    6.0754    0.0000 H   0  0  0  0  0  0  0  0  0  0  0  0
   11.7383   -2.8996    0.0000 H   0  0  0  0  0  0  0  0  0  0  0  0
   12.1369   -2.2093    0.0000 H   0  0  0  0  0  0  0  0  0  0  0  0
   16.9345    6.1004    0.0000 H   0  0  0  0  0  0  0  0  0  0  0  0
   17.3330    6.7907    0.0000 H   0  0  0  0  0  0  0  0  0  0  0  0
    3.3335   -8.2919    0.0000 H   0  0  0  0  0  0  0  0  0  0  0  0
    4.1306   -8.2919    0.0000 H   0  0  0  0  0  0  0  0  0  0  0  0
   10.4482   -2.2344    0.0000 H   0  0  0  0  0  0  0  0  0  0  0  0
   10.0497   -2.9247    0.0000 H   0  0  0  0  0  0  0  0  0  0  0  0
    2.3100   -6.2800    0.0000 H   0  0  0  0  0  0  0  0  0  0  0  0
    1.8291   -7.8730    0.0000 H   0  0  0  0  0  0  0  0  0  0  0  0
    2.0560   -8.7200    0.0000 H   0  0  0  0  0  0  0  0  0  0  0  0
    1.4631   -6.5070    0.0000 H   0  0  0  0  0  0  0  0  0  0  0  0
    1.6900   -7.3539    0.0000 H   0  0  0  0  0  0  0  0  0  0  0  0
    2.9030   -8.4930    0.0000 H   0  0  0  0  0  0  0  0  0  0  0  0
    3.9030   -6.7610    0.0000 H   0  0  0  0  0  0  0  0  0  0  0  0
    3.6760   -5.9140    0.0000 H   0  0  0  0  0  0  0  0  0  0  0  0
    2.8291   -6.1410    0.0000 H   0  0  0  0  0  0  0  0  0  0  0  0
   16.5104    8.2656    0.0000 H   0  0  0  0  0  0  0  0  0  0  0  0
   16.1119    7.5754    0.0000 H   0  0  0  0  0  0  0  0  0  0  0  0
   10.8723   -4.3996    0.0000 H   0  0  0  0  0  0  0  0  0  0  0  0
   11.2708   -3.7093    0.0000 H   0  0  0  0  0  0  0  0  0  0  0  0
    4.9966   -6.8420    0.0000 H   0  0  0  0  0  0  0  0  0  0  0  0
    4.1996   -6.8420    0.0000 H   0  0  0  0  0  0  0  0  0  0  0  0
   17.8985    7.6461    0.0000 H   0  0  0  0  0  0  0  0  0  0  0  0
   18.1254    8.4930    0.0000 H   0  0  0  0  0  0  0  0  0  0  0  0
   17.2785    8.7200    0.0000 H   0  0  0  0  0  0  0  0  0  0  0  0
    9.4651   -6.5070    0.0000 H   0  0  0  0  0  0  0  0  0  0  0  0
    8.7162   -5.2344    0.0000 H   0  0  0  0  0  0  0  0  0  0  0  0
    8.3176   -5.9246    0.0000 H   0  0  0  0  0  0  0  0  0  0  0  0
    7.6636   -7.7919    0.0000 H   0  0  0  0  0  0  0  0  0  0  0  0
    8.4607   -7.7919    0.0000 H   0  0  0  0  0  0  0  0  0  0  0  0
   11.1278   -7.7919    0.0000 H   0  0  0  0  0  0  0  0  0  0  0  0
   11.9248   -7.7919    0.0000 H   0  0  0  0  0  0  0  0  0  0  0  0
   12.7908   -6.3420    0.0000 H   0  0  0  0  0  0  0  0  0  0  0  0
   11.9938   -6.3420    0.0000 H   0  0  0  0  0  0  0  0  0  0  0  0
   13.2583   -7.9370    0.0000 H   0  0  0  0  0  0  0  0  0  0  0  0
   14.6613   -7.1270    0.0000 H   0  0  0  0  0  0  0  0  0  0  0  0
   13.9123   -5.2344    0.0000 H   0  0  0  0  0  0  0  0  0  0  0  0
   13.5138   -5.9246    0.0000 H   0  0  0  0  0  0  0  0  0  0  0  0
   15.5273   -5.6270    0.0000 H   0  0  0  0  0  0  0  0  0  0  0  0
   15.5273   -4.0070    0.0000 H   0  0  0  0  0  0  0  0  0  0  0  0
   13.5138   -3.7093    0.0000 H   0  0  0  0  0  0  0  0  0  0  0  0
   13.9123   -4.3996    0.0000 H   0  0  0  0  0  0  0  0  0  0  0  0
   13.5874   -2.5070    0.0000 H   0  0  0  0  0  0  0  0  0  0  0  0
   14.9904   -1.6970    0.0000 H   0  0  0  0  0  0  0  0  0  0  0  0
   15.4579   -3.2919    0.0000 H   0  0  0  0  0  0  0  0  0  0  0  0
   16.2549   -3.2919    0.0000 H   0  0  0  0  0  0  0  0  0  0  0  0
   16.7224   -1.6970    0.0000 H   0  0  0  0  0  0  0  0  0  0  0  0
   18.1254   -2.5070    0.0000 H   0  0  0  0  0  0  0  0  0  0  0  0
   16.9779   -3.7093    0.0000 H   0  0  0  0  0  0  0  0  0  0  0  0
   17.3764   -4.3996    0.0000 H   0  0  0  0  0  0  0  0  0  0  0  0
   18.9914   -4.0070    0.0000 H   0  0  0  0  0  0  0  0  0  0  0  0
   17.3764   -5.2344    0.0000 H   0  0  0  0  0  0  0  0  0  0  0  0
   16.9779   -5.9246    0.0000 H   0  0  0  0  0  0  0  0  0  0  0  0
   18.9914   -5.6270    0.0000 H   0  0  0  0  0  0  0  0  0  0  0  0
   17.0515   -7.1270    0.0000 H   0  0  0  0  0  0  0  0  0  0  0  0
   18.4545   -7.9370    0.0000 H   0  0  0  0  0  0  0  0  0  0  0  0
   19.7190   -6.3420    0.0000 H   0  0  0  0  0  0  0  0  0  0  0  0
   18.9220   -6.3420    0.0000 H   0  0  0  0  0  0  0  0  0  0  0  0
   19.8765   -7.8539    0.0000 H   0  0  0  0  0  0  0  0  0  0  0  0
   20.7235   -7.6270    0.0000 H   0  0  0  0  0  0  0  0  0  0  0  0
   20.4965   -6.7800    0.0000 H   0  0  0  0  0  0  0  0  0  0  0  0
  1  2  1  0
  1  4  1  0
  1  7  1  0
  1  8  2  0
  2 31  1  0
  3 33  1  0
  3 35  1  0
  4 36  1  0
  5 33  2  0
 34  6  1  0
  6 37  1  0
  9 37  2  0
 10 24  1  0
 10 26  1  0
 10 27  1  0
 10 28  1  0
 11 12  1  0
 11 13  1  0
 11 59  1  0
 11 60  1  0
 12 14  1  0
 12 61  1  0
 12 62  1  0
 13 15  1  0
 13 63  1  0
 13 64  1  0
 14 16  1  0
 14 65  1  0
 14 66  1  0
 15 17  1  0
 15 67  1  0
 15 68  1  0
 16 18  1  0
 16 69  1  0
 16 70  1  0
 17 19  1  0
 17 71  1  0
 17 72  1  0
 18 20  1  0
 18 73  1  0
 18 74  1  0
 19 21  1  0
 19 75  1  0
 19 76  1  0
 20 22  1  0
 20 77  1  0
 20 78  1  0
 21 23  1  0
 21 79  1  0
 21 80  1  0
 22 25  1  0
 22 81  1  0
 22 82  1  0
 23 29  1  0
 23 83  1  0
 23 84  1  0
 24 31  1  0
 24 85  1  0
 24 86  1  0
 25 30  1  0
 25 87  1  0
 25 88  1  0
 26 89  1  0
 26 92  1  0
 26 93  1  0
 27 90  1  0
 27 91  1  0
 27 94  1  0
 28 95  1  0
 28 96  1  0
 28 97  1  0
 29 32  1  0
 29 98  1  0
 29 99  1  0
 30 33  1  0
 30100  1  0
 30101  1  0
 31102  1  0
 31103  1  0
 32104  1  0
 32105  1  0
 32106  1  0
 34 35  1  0
 34 36  1  0
 34107  1  6
 35108  1  0
 35109  1  0
 36110  1  0
 36111  1  0
 37 38  1  0
 38 39  1  0
 38112  1  0
 38113  1  0
 39 40  1  0
 39114  1  0
 39115  1  0
 40 41  2  0
 40116  1  0
 41 42  1  0
 41117  1  0
 42 43  1  0
 42118  1  0
 42119  1  0
 43 44  2  0
 43120  1  0
 44 45  1  0
 44121  1  0
 45 46  1  0
 45122  1  0
 45123  1  0
 46 47  2  0
 46124  1  0
 47 48  1  0
 47125  1  0
 48 49  1  0
 48126  1  0
 48127  1  0
 49 50  2  0
 49128  1  0
 50 51  1  0
 50129  1  0
 51 52  1  0
 51130  1  0
 51131  1  0
 52 54  2  0
 52132  1  0
 53 54  1  0
 53 55  1  0
 53133  1  0
 53134  1  0
 54135  1  0
 55 56  2  0
 55136  1  0
 56 57  1  0
 56137  1  0
 57 58  1  0
 57138  1  0
 57139  1  0
 58140  1  0
 58141  1  0
 58142  1  0
M  CHG  2   7  -1  10   1
M  END
>  <PUBCHEM_ATOM_DEF_STEREO_COUNT>  (1) 
1

>  <PUBCHEM_ATOM_UDEF_STEREO_COUNT>  (1) 
0

>  <PUBCHEM_BONDANNOTATIONS>  (1) 
34  6  5

>  <PUBCHEM_BOND_DEF_STEREO_COUNT>  (1) 
6

>  <PUBCHEM_BOND_UDEF_STEREO_COUNT>  (1) 
0

>  <PUBCHEM_CACTVS_COMPLEXITY>  (1) 
1210

>  <PUBCHEM_CACTVS_HBOND_ACCEPTOR>  (1) 
8

>  <PUBCHEM_CACTVS_HBOND_DONOR>  (1) 
0

>  <PUBCHEM_CACTVS_ROTATABLE_BOND>  (1) 
42

>  <PUBCHEM_CACTVS_SUBSKEYS>  (1) 
AAADcfB+PAIAAAAAAAAAAAAAAAAAAAAAAAAAAAAAAAAAAAAAAAAAHgAAACAACBThgAYCCAMABRCIQCDSCIAAAAAgAAAICAEIAAgDABIAAQACAAAFgAAaAAOIyKCAAAAAAAAAAAAAAAAAAAAAAAAAAAAAAA==

>  <PUBCHEM_CACTVS_TAUTO_COUNT>  (1) 
1

>  <PUBCHEM_CACTVS_TPSA>  (1) 
111

>  <PUBCHEM_COMPONENT_COUNT>  (1) 
1

>  <PUBCHEM_COMPOUND_CANONICALIZED>  (1) 
1

>  <PUBCHEM_COMPOUND_CID>  (1) 
24778876

>  <PUBCHEM_COORDINATE_TYPE>  (1) 
1
5
255

>  <PUBCHEM_EXACT_MASS>  (1) 
833.593

>  <PUBCHEM_HEAVY_ATOM_COUNT>  (1) 
58

>  <PUBCHEM_ISOTOPIC_ATOM_COUNT>  (1) 
0

>  <PUBCHEM_IUPAC_CAS_NAME>  (1) 
[(2R)-2-[(4Z,7Z,10Z,13Z,16Z,19Z)-1-oxodocosa-4,7,10,13,16,19-hexaenoxy]-3-(1-oxooctadecoxy)propyl] 2-(trimethylammonio)ethyl phosphate

>  <PUBCHEM_IUPAC_INCHI>  (1) 
InChI=1S/C48H84NO8P/c1-6-8-10-12-14-16-18-20-22-23-24-25-27-29-31-33-35-37-39-41-48(51)57-46(45-56-58(52,53)55-43-42-49(3,4)5)44-54-47(50)40-38-36-34-32-30-28-26-21-19-17-15-13-11-9-7-2/h8,10,14,16,20,22,24-25,29,31,35,37,46H,6-7,9,11-13,15,17-19,21,23,26-28,30,32-34,36,38-45H2,1-5H3/b10-8-,16-14-,22-20-,25-24-,31-29-,37-35-/t46-/m1/s1

>  <PUBCHEM_IUPAC_INCHIKEY>  (1) 
FAUYAENFVCNTAL-PFFNLMTBSA-N

>  <PUBCHEM_IUPAC_NAME>  (1) 
[(2R)-2-[(4Z,7Z,10Z,13Z,16Z,19Z)-docosa-4,7,10,13,16,19-hexaenoyl]oxy-3-octadecanoyloxypropyl] 2-(trimethylazaniumyl)ethyl phosphate

>  <PUBCHEM_IUPAC_OPENEYE_NAME>  (1) 
[(2R)-2-[(4Z,7Z,10Z,13Z,16Z,19Z)-docosa-4,7,10,13,16,19-hexaenoyl]oxy-3-octadecanoyloxy-propyl] 2-(trimethylammonio)ethyl phosphate

>  <PUBCHEM_IUPAC_SYSTEMATIC_NAME>  (1) 
[(2R)-2-[(4Z,7Z,10Z,13Z,16Z,19Z)-docosa-4,7,10,13,16,19-hexaenoyl]oxy-3-octadecanoyloxy-propyl] 2-(trimethylazaniumyl)ethyl phosphate

>  <PUBCHEM_IUPAC_TRADITIONAL_NAME>  (1) 
[(2R)-2-[(4Z,7Z,10Z,13Z,16Z,19Z)-docosa-4,7,10,13,16,19-hexaenoyl]oxy-3-stearoyloxy-propyl] 2-(trimethylammonio)ethyl phosphate

>  <PUBCHEM_MOLECULAR_FORMULA>  (1) 
C48H84NO8P

>  <PUBCHEM_MOLECULAR_WEIGHT>  (1) 
834.173

>  <PUBCHEM_MONOISOTOPIC_WEIGHT>  (1) 
833.593

>  <PUBCHEM_OPENEYE_CAN_SMILES>  (1) 
CCCCCCCCCCCCCCCCCC(=O)OCC(COP(=O)([O-])OCC[N+](C)(C)C)OC(=O)CCC=CCC=CCC=CCC=CCC=CCC=CCC

>  <PUBCHEM_OPENEYE_ISO_SMILES>  (1) 
CCCCCCCCCCCCCCCCCC(=O)OC[C@H](COP(=O)([O-])OCC[N+](C)(C)C)OC(=O)CC/C=C\C/C=C\C/C=C\C/C=C\C/C=C\C/C=C\CC

>  <PUBCHEM_TOTAL_CHARGE>  (1) 
0

>  <PUBCHEM_XLOGP3_AA>  (1) 
13.6

$$$$
