169317
  -OEChem-03161705233D

 33 34  0     0  0  0  0  0  0999 V2000
   -0.5721   -2.1730    0.8232 O   0  0  0  0  0  0  0  0  0  0  0  0
   -2.0875    2.1844   -0.0508 O   0  0  0  0  0  0  0  0  0  0  0  0
    1.0127   -0.5159    0.4261 N   0  0  0  0  0  0  0  0  0  0  0  0
   -1.3553   -0.0085    0.3896 N   0  0  0  0  0  0  0  0  0  0  0  0
    0.7983    2.9062   -0.2902 N   0  0  0  0  0  0  0  0  0  0  0  0
    2.4487    1.4305   -0.0279 N   0  0  0  0  0  0  0  0  0  0  0  0
    2.1449   -1.4204    0.5836 C   0  0  0  0  0  0  0  0  0  0  0  0
    1.2325    0.8237    0.1361 C   0  0  0  0  0  0  0  0  0  0  0  0
   -2.7214   -0.4997    0.5355 C   0  0  0  0  0  0  0  0  0  0  0  0
   -0.3153   -0.9914    0.5656 C   0  0  0  0  0  0  0  0  0  0  0  0
    0.2007    1.7085   -0.0201 C   0  0  0  0  0  0  0  0  0  0  0  0
   -1.1807    1.3695    0.0932 C   0  0  0  0  0  0  0  0  0  0  0  0
    2.5147   -2.0453   -0.7592 C   0  0  0  0  0  0  0  0  0  0  0  0
   -3.2607   -0.9739   -0.8116 C   0  0  0  0  0  0  0  0  0  0  0  0
    3.6813   -3.0109   -0.6183 C   0  0  0  0  0  0  0  0  0  0  0  0
    2.1518    2.6878   -0.2841 C   0  0  0  0  0  0  0  0  0  0  0  0
   -4.6928   -1.4716   -0.6908 C   0  0  0  0  0  0  0  0  0  0  0  0
    2.9938   -0.8792    1.0175 H   0  0  0  0  0  0  0  0  0  0  0  0
    1.8704   -2.2095    1.2935 H   0  0  0  0  0  0  0  0  0  0  0  0
   -2.7529   -1.3159    1.2660 H   0  0  0  0  0  0  0  0  0  0  0  0
   -3.3547    0.3056    0.9256 H   0  0  0  0  0  0  0  0  0  0  0  0
    1.6527   -2.5793   -1.1771 H   0  0  0  0  0  0  0  0  0  0  0  0
    2.7801   -1.2626   -1.4798 H   0  0  0  0  0  0  0  0  0  0  0  0
   -3.2241   -0.1566   -1.5419 H   0  0  0  0  0  0  0  0  0  0  0  0
   -2.6311   -1.7789   -1.2088 H   0  0  0  0  0  0  0  0  0  0  0  0
    0.3340    3.7882   -0.4622 H   0  0  0  0  0  0  0  0  0  0  0  0
    4.5701   -2.4985   -0.2364 H   0  0  0  0  0  0  0  0  0  0  0  0
    3.4336   -3.8278    0.0670 H   0  0  0  0  0  0  0  0  0  0  0  0
    3.9318   -3.4470   -1.5904 H   0  0  0  0  0  0  0  0  0  0  0  0
    2.8595    3.4825   -0.4726 H   0  0  0  0  0  0  0  0  0  0  0  0
   -4.7576   -2.3141    0.0051 H   0  0  0  0  0  0  0  0  0  0  0  0
   -5.3552   -0.6771   -0.3324 H   0  0  0  0  0  0  0  0  0  0  0  0
   -5.0608   -1.8069   -1.6655 H   0  0  0  0  0  0  0  0  0  0  0  0
  1 10  2  0  0  0  0
  2 12  2  0  0  0  0
  3  7  1  0  0  0  0
  3  8  1  0  0  0  0
  3 10  1  0  0  0  0
  4  9  1  0  0  0  0
  4 10  1  0  0  0  0
  4 12  1  0  0  0  0
  5 11  1  0  0  0  0
  5 16  1  0  0  0  0
  5 26  1  0  0  0  0
  6  8  1  0  0  0  0
  6 16  2  0  0  0  0
  7 13  1  0  0  0  0
  7 18  1  0  0  0  0
  7 19  1  0  0  0  0
  8 11  2  0  0  0  0
  9 14  1  0  0  0  0
  9 20  1  0  0  0  0
  9 21  1  0  0  0  0
 11 12  1  0  0  0  0
 13 15  1  0  0  0  0
 13 22  1  0  0  0  0
 13 23  1  0  0  0  0
 14 17  1  0  0  0  0
 14 24  1  0  0  0  0
 14 25  1  0  0  0  0
 15 27  1  0  0  0  0
 15 28  1  0  0  0  0
 15 29  1  0  0  0  0
 16 30  1  0  0  0  0
 17 31  1  0  0  0  0
 17 32  1  0  0  0  0
 17 33  1  0  0  0  0
M  END
> <PUBCHEM_COMPOUND_CID>
169317

> <PUBCHEM_CONFORMER_RMSD>
0.6

> <PUBCHEM_CONFORMER_DIVERSEORDER>
1
16
11
17
22
6
19
21
20
18
13
15
8
3
10
14
7
12
9
5
2
4

> <PUBCHEM_MMFF94_PARTIAL_CHARGES>
15
1 -0.57
10 0.69
11 -0.24
12 0.71
16 0.04
2 -0.57
26 0.27
3 -0.42
30 0.15
4 -0.42
5 0.03
6 -0.57
7 0.3
8 0.29
9 0.3

> <PUBCHEM_EFFECTIVE_ROTOR_COUNT>
4

> <PUBCHEM_PHARMACOPHORE_FEATURES>
8
1 1 acceptor
1 15 hydrophobe
1 17 hydrophobe
1 2 acceptor
1 5 donor
3 5 6 16 cation
5 5 6 8 11 16 rings
6 3 4 8 10 11 12 rings

> <PUBCHEM_HEAVY_ATOM_COUNT>
17

> <PUBCHEM_ATOM_DEF_STEREO_COUNT>
0

> <PUBCHEM_ATOM_UDEF_STEREO_COUNT>
0

> <PUBCHEM_BOND_DEF_STEREO_COUNT>
0

> <PUBCHEM_BOND_UDEF_STEREO_COUNT>
0

> <PUBCHEM_ISOTOPIC_ATOM_COUNT>
0

> <PUBCHEM_COMPONENT_COUNT>
1

> <PUBCHEM_CACTVS_TAUTO_COUNT>
3

> <PUBCHEM_CONFORMER_ID>
0002956500000001

> <PUBCHEM_MMFF94_ENERGY>
15.4706

> <PUBCHEM_FEATURE_SELFOVERLAP>
40.709

> <PUBCHEM_SHAPE_FINGERPRINT>
10756046 5 18409163282090639773
10967382 1 18264489674893020577
10989021 7 18411419488308492899
11680986 33 18263371437192191850
116883 192 18340481175880523063
12553582 1 18263647251565809635
13140716 1 17904768034854184312
13380535 76 18119242015567927442
14181834 199 18115296899228288574
14576447 43 17912632807801066767
14617773 55 18131362907720906641
14790565 3 17474404478265869856
16945 1 18264498453800970352
18186145 218 17894903036768820687
193761 8 18408888412372813928
19591789 44 16899341136193935465
20645477 70 18337380652165067159
20671657 53 18411417267789581319
20871999 31 18192437376650158030
21501502 16 18411986840656283073
21634736 98 18411412904218703775
221490 88 18408608080242382851
22213442 358 18268714905174255038
23114952 82 18187359973744674541
2334 1 18335985293945724416
23419403 2 17538515046875527412
23557571 272 18127695929242508406
23566358 2 18336254678599975213
23598291 2 18272379641864704363
25 1 18046334508116972765
2748010 2 18335415712615558528
3060560 45 18122058977296276972
3071541 250 18410579469903958827
352729 6 17830743405897875936
7364860 26 18341050817276953408
7832392 63 18194679259595151809
81228 2 17977670810000011450

> <PUBCHEM_SHAPE_MULTIPOLES>
318.19
5.94
3.64
0.84
4.37
0.83
0.02
-4.84
1.78
-3.05
0.63
0.1
-0.33
0.01

> <PUBCHEM_SHAPE_SELFOVERLAP>
663.619

> <PUBCHEM_SHAPE_VOLUME>
181.6

> <PUBCHEM_COORDINATE_TYPE>
2
5
10

$$$$
