54562
  -OEChem-03161706093D

 37 39  0     1  0  0  0  0  0999 V2000
   -1.7691   -0.0885   -0.2073 N   0  0  1  0  0  0  0  0  0  0  0  0
    3.8327   -0.0120    0.1715 N   0  0  0  0  0  0  0  0  0  0  0  0
    4.1516    1.2882    0.0196 N   0  0  0  0  0  0  0  0  0  0  0  0
    0.3560   -1.4337   -0.2780 C   0  0  2  0  0  0  0  0  0  0  0  0
   -0.3507   -0.1241    0.2273 C   0  0  1  0  0  0  0  0  0  0  0  0
   -0.4285   -2.6874    0.1203 C   0  0  0  0  0  0  0  0  0  0  0  0
    1.8164   -1.5539    0.2349 C   0  0  0  0  0  0  0  0  0  0  0  0
    0.4290    1.1357   -0.2735 C   0  0  0  0  0  0  0  0  0  0  0  0
   -1.8813   -2.5647   -0.3082 C   0  0  0  0  0  0  0  0  0  0  0  0
   -2.5022   -1.2842    0.2388 C   0  0  0  0  0  0  0  0  0  0  0  0
    2.4953   -0.2486    0.0924 C   0  0  0  0  0  0  0  0  0  0  0  0
    1.8950    0.9677   -0.1180 C   0  0  0  0  0  0  0  0  0  0  0  0
   -2.4721    1.1076    0.2677 C   0  0  0  0  0  0  0  0  0  0  0  0
   -3.9033    1.1838   -0.2502 C   0  0  0  0  0  0  0  0  0  0  0  0
    2.9646    1.8805   -0.1577 C   0  0  0  0  0  0  0  0  0  0  0  0
   -4.6334    2.4336    0.2204 C   0  0  0  0  0  0  0  0  0  0  0  0
    0.3877   -1.3887   -1.3776 H   0  0  0  0  0  0  0  0  0  0  0  0
   -0.3131   -0.1294    1.3275 H   0  0  0  0  0  0  0  0  0  0  0  0
   -0.3828   -2.8310    1.2073 H   0  0  0  0  0  0  0  0  0  0  0  0
    0.0185   -3.5766   -0.3394 H   0  0  0  0  0  0  0  0  0  0  0  0
    2.3458   -2.3316   -0.3273 H   0  0  0  0  0  0  0  0  0  0  0  0
    1.8244   -1.8444    1.2925 H   0  0  0  0  0  0  0  0  0  0  0  0
    0.1225    2.0244    0.2897 H   0  0  0  0  0  0  0  0  0  0  0  0
    0.2093    1.3162   -1.3335 H   0  0  0  0  0  0  0  0  0  0  0  0
   -1.9465   -2.5732   -1.4037 H   0  0  0  0  0  0  0  0  0  0  0  0
   -2.4450   -3.4332    0.0517 H   0  0  0  0  0  0  0  0  0  0  0  0
   -3.5263   -1.3036   -0.1408 H   0  0  0  0  0  0  0  0  0  0  0  0
   -2.5510   -1.3306    1.3346 H   0  0  0  0  0  0  0  0  0  0  0  0
   -1.9703    2.0119   -0.0914 H   0  0  0  0  0  0  0  0  0  0  0  0
   -2.4690    1.1511    1.3647 H   0  0  0  0  0  0  0  0  0  0  0  0
   -3.9099    1.1560   -1.3465 H   0  0  0  0  0  0  0  0  0  0  0  0
   -4.5160    0.3503    0.1035 H   0  0  0  0  0  0  0  0  0  0  0  0
    4.5806   -0.6766    0.3274 H   0  0  0  0  0  0  0  0  0  0  0  0
    2.9338    2.9501   -0.3092 H   0  0  0  0  0  0  0  0  0  0  0  0
   -4.1242    3.3378   -0.1281 H   0  0  0  0  0  0  0  0  0  0  0  0
   -5.6556    2.4480   -0.1709 H   0  0  0  0  0  0  0  0  0  0  0  0
   -4.6862    2.4685    1.3133 H   0  0  0  0  0  0  0  0  0  0  0  0
  1  5  1  0  0  0  0
  1 10  1  0  0  0  0
  1 13  1  0  0  0  0
  2  3  1  0  0  0  0
  2 11  1  0  0  0  0
  2 33  1  0  0  0  0
  3 15  2  0  0  0  0
  4  5  1  0  0  0  0
  4  6  1  0  0  0  0
  4  7  1  0  0  0  0
  4 17  1  0  0  0  0
  5  8  1  0  0  0  0
  5 18  1  0  0  0  0
  6  9  1  0  0  0  0
  6 19  1  0  0  0  0
  6 20  1  0  0  0  0
  7 11  1  0  0  0  0
  7 21  1  0  0  0  0
  7 22  1  0  0  0  0
  8 12  1  0  0  0  0
  8 23  1  0  0  0  0
  8 24  1  0  0  0  0
  9 10  1  0  0  0  0
  9 25  1  0  0  0  0
  9 26  1  0  0  0  0
 10 27  1  0  0  0  0
 10 28  1  0  0  0  0
 11 12  2  0  0  0  0
 12 15  1  0  0  0  0
 13 14  1  0  0  0  0
 13 29  1  0  0  0  0
 13 30  1  0  0  0  0
 14 16  1  0  0  0  0
 14 31  1  0  0  0  0
 14 32  1  0  0  0  0
 15 34  1  0  0  0  0
 16 35  1  0  0  0  0
 16 36  1  0  0  0  0
 16 37  1  0  0  0  0
M  END
> <PUBCHEM_COMPOUND_CID>
54562

> <PUBCHEM_CONFORMER_RMSD>
0.6

> <PUBCHEM_CONFORMER_DIVERSEORDER>
1
3
2
4

> <PUBCHEM_MMFF94_PARTIAL_CHARGES>
13
1 -0.81
10 0.27
11 -0.33
12 -0.18
13 0.27
15 0.14
2 0.3
3 -0.71
33 0.27
34 0.15
5 0.27
7 0.18
8 0.18

> <PUBCHEM_EFFECTIVE_ROTOR_COUNT>
3.2

> <PUBCHEM_PHARMACOPHORE_FEATURES>
7
1 1 cation
1 16 hydrophobe
1 2 donor
1 3 acceptor
5 2 3 11 12 15 rings
6 1 4 5 6 9 10 rings
6 4 5 7 8 11 12 rings

> <PUBCHEM_HEAVY_ATOM_COUNT>
16

> <PUBCHEM_ATOM_DEF_STEREO_COUNT>
2

> <PUBCHEM_ATOM_UDEF_STEREO_COUNT>
0

> <PUBCHEM_BOND_DEF_STEREO_COUNT>
0

> <PUBCHEM_BOND_UDEF_STEREO_COUNT>
0

> <PUBCHEM_ISOTOPIC_ATOM_COUNT>
0

> <PUBCHEM_COMPONENT_COUNT>
1

> <PUBCHEM_CACTVS_TAUTO_COUNT>
2

> <PUBCHEM_CONFORMER_ID>
0000D52200000001

> <PUBCHEM_MMFF94_ENERGY>
17.6542

> <PUBCHEM_FEATURE_SELFOVERLAP>
35.623

> <PUBCHEM_SHAPE_FINGERPRINT>
10411042 1 17329992911502608930
10493431 412 18410294709493823913
10608611 8 18269272542147649128
10967382 1 18338234843190972788
11471102 20 18265893553900002733
12173636 292 18339919449644667151
122479 349 18334861610452749739
12390115 104 18269294476287413825
12491281 212 18262240027042443546
12500047 106 18341326772951910216
13140716 1 18335698299946698498
13380535 76 18412261714357794167
138480 1 17402049998712861711
14123255 52 18410855426196042129
14178342 30 18264192785542305496
14325111 11 18338236076131488308
14897335 6 18411416194226624533
15196674 1 18410292510180028226
15442244 35 18408880759352781754
15775835 57 18335140894811542432
16945 1 18121782995725188214
1741750 31 18413671313960436929
17834072 32 18410577292440299581
18186145 218 18200890490642319193
20157964 124 18122059794374524949
204376 136 18410860928207241569
20510252 161 18198628919899439667
212916 134 18270942588408911752
21499 59 18339355267605434877
21501502 16 18408877464622411138
21524375 3 18410852140572135687
2334 1 18410293648357190518
23402539 116 18272642446180917980
23463225 33 18262796397469983574
23558518 356 18044938115153526594
23559900 14 18201719566335359392
25 1 18339357461943274421
2748010 2 18338530667717145311
3071541 12 18052261696045354655
3091708 16 9122881609489884043
335352 9 18338516327285353502
474 4 18267867181899247857
474229 33 18410858785398368979
5104073 3 18334570283148285816
6333272 397 18338800009817017377
633830 44 18057043511022446677
69090 78 18408881824277694349
7364860 26 18124878949838593127
7832392 63 18409728473905907620
8272917 22 18053666876448481125
84936 182 17985542256698701393
9709674 26 18342181119356995798

> <PUBCHEM_SHAPE_MULTIPOLES>
314.33
7.25
2.93
0.65
1.73
1.11
0
-5.99
0.28
1.65
-0.05
0.07
0.02
-0.27

> <PUBCHEM_SHAPE_SELFOVERLAP>
658.231

> <PUBCHEM_SHAPE_VOLUME>
175.7

> <PUBCHEM_COORDINATE_TYPE>
2
5
10

$$$$
