9898183
  -OEChem-03161706372D

149154  0     1  0  0  0  0  0999 V2000
    7.3375    3.3569    0.0000 O   0  0  0  0  0  0  0  0  0  0  0  0
   10.5182    5.2911    0.0000 O   0  0  0  0  0  0  0  0  0  0  0  0
    6.5801   -0.2879    0.0000 O   0  0  0  0  0  0  0  0  0  0  0  0
    8.7269   -3.3292    0.0000 O   0  0  0  0  0  0  0  0  0  0  0  0
   12.4149   -3.8361    0.0000 O   0  0  0  0  0  0  0  0  0  0  0  0
   12.4206    5.7515    0.0000 O   0  0  0  0  0  0  0  0  0  0  0  0
   15.3025   -1.4868    0.0000 O   0  0  0  0  0  0  0  0  0  0  0  0
   15.0618   -2.4292    0.0000 O   0  0  0  0  0  0  0  0  0  0  0  0
   16.1403   -5.8697    0.0000 O   0  0  0  0  0  0  0  0  0  0  0  0
    8.8370    3.5110    0.0000 N   0  0  0  0  0  0  0  0  0  0  0  0
    7.4910    0.9132    0.0000 N   0  0  0  0  0  0  0  0  0  0  0  0
   11.6544    4.3004    0.0000 N   0  0  0  0  0  0  0  0  0  0  0  0
    8.4708   -1.8437    0.0000 N   0  0  0  0  0  0  0  0  0  0  0  0
   11.1544   -3.0093    0.0000 N   0  0  0  0  0  0  0  0  0  0  0  0
   13.5819   -3.3292    0.0000 N   0  0  0  0  0  0  0  0  0  0  0  0
    6.7228    4.7384    0.0000 N   0  0  0  0  0  0  0  0  0  0  0  0
   14.7495   -0.0844    0.0000 N   0  0  0  0  0  0  0  0  0  0  0  0
   16.1009   -4.1381    0.0000 N   0  0  0  0  0  0  0  0  0  0  0  0
   14.0092    5.0614    0.0000 N   0  0  0  0  0  0  0  0  0  0  0  0
   10.4252   -5.5370    0.0000 N   0  0  0  0  0  0  0  0  0  0  0  0
    4.2876    1.2649    0.0000 N   0  0  0  0  0  0  0  0  0  0  0  0
   12.0261   -5.3021    0.0000 N   0  0  0  0  0  0  0  0  0  0  0  0
    2.5842    0.9512    0.0000 N   0  0  0  0  0  0  0  0  0  0  0  0
    3.1642    2.5832    0.0000 N   0  0  0  0  0  0  0  0  0  0  0  0
    9.6915    4.0306    0.0000 C   0  0  1  0  0  0  0  0  0  0  0  0
    7.6944    1.8923    0.0000 C   0  0  1  0  0  0  0  0  0  0  0  0
    9.2931    4.9478    0.0000 C   0  0  0  0  0  0  0  0  0  0  0  0
    7.8941   -1.0267    0.0000 C   0  0  2  0  0  0  0  0  0  0  0  0
    6.7522    2.2272    0.0000 C   0  0  0  0  0  0  0  0  0  0  0  0
   12.6173    4.0306    0.0000 C   0  0  1  0  0  0  0  0  0  0  0  0
   13.4717    3.5110    0.0000 C   0  0  0  0  0  0  0  0  0  0  0  0
   14.1543    2.7802    0.0000 C   0  0  0  0  0  0  0  0  0  0  0  0
    8.1545    2.7802    0.0000 C   0  0  0  0  0  0  0  0  0  0  0  0
    8.2995    5.0614    0.0000 C   0  0  0  0  0  0  0  0  0  0  0  0
   10.6544    4.3004    0.0000 C   0  0  0  0  0  0  0  0  0  0  0  0
   10.1637   -2.8732    0.0000 C   0  0  2  0  0  0  0  0  0  0  0  0
    7.0062   -1.4868    0.0000 C   0  0  0  0  0  0  0  0  0  0  0  0
   14.6143    1.8923    0.0000 C   0  0  0  0  0  0  0  0  0  0  0  0
    7.5592   -0.0844    0.0000 C   0  0  0  0  0  0  0  0  0  0  0  0
    5.9910    1.5786    0.0000 C   0  0  0  0  0  0  0  0  0  0  0  0
   13.0623   -2.4748    0.0000 C   0  0  1  0  0  0  0  0  0  0  0  0
    7.8111    5.9272    0.0000 C   0  0  0  0  0  0  0  0  0  0  0  0
   14.8178    0.9132    0.0000 C   0  0  0  0  0  0  0  0  0  0  0  0
    9.2465   -2.4748    0.0000 C   0  0  0  0  0  0  0  0  0  0  0  0
    9.8939   -3.8361    0.0000 C   0  0  0  0  0  0  0  0  0  0  0  0
   13.8380   -1.8437    0.0000 C   0  0  0  0  0  0  0  0  0  0  0  0
    7.6283    4.3282    0.0000 C   0  0  0  0  0  0  0  0  0  0  0  0
    6.9607   -2.4857    0.0000 C   0  0  0  0  0  0  0  0  0  0  0  0
    6.8314    5.7265    0.0000 C   0  0  0  0  0  0  0  0  0  0  0  0
   12.1451   -2.8732    0.0000 C   0  0  0  0  0  0  0  0  0  0  0  0
   15.1012   -4.1608    0.0000 C   0  0  1  0  0  0  0  0  0  0  0  0
   13.0157    4.9478    0.0000 C   0  0  0  0  0  0  0  0  0  0  0  0
   14.6210   -5.0380    0.0000 C   0  0  0  0  0  0  0  0  0  0  0  0
    5.0488    1.9135    0.0000 C   0  0  0  0  0  0  0  0  0  0  0  0
   14.4147   -1.0267    0.0000 C   0  0  0  0  0  0  0  0  0  0  0  0
   14.5816   -3.3064    0.0000 C   0  0  0  0  0  0  0  0  0  0  0  0
   15.1406   -5.8924    0.0000 C   0  0  0  0  0  0  0  0  0  0  0  0
    8.1271    6.8760    0.0000 C   0  0  0  0  0  0  0  0  0  0  0  0
   10.5929   -4.5512    0.0000 C   0  0  0  0  0  0  0  0  0  0  0  0
    6.0728   -2.9458    0.0000 C   0  0  0  0  0  0  0  0  0  0  0  0
    7.8031   -3.0246    0.0000 C   0  0  0  0  0  0  0  0  0  0  0  0
    6.1678    6.4746    0.0000 C   0  0  0  0  0  0  0  0  0  0  0  0
    6.0273   -3.9448    0.0000 C   0  0  0  0  0  0  0  0  0  0  0  0
   14.6604   -6.7696    0.0000 C   0  0  0  0  0  0  0  0  0  0  0  0
    7.4635    7.6240    0.0000 C   0  0  0  0  0  0  0  0  0  0  0  0
    6.8697   -4.4836    0.0000 C   0  0  0  0  0  0  0  0  0  0  0  0
    7.7575   -4.0236    0.0000 C   0  0  0  0  0  0  0  0  0  0  0  0
    6.4838    7.4233    0.0000 C   0  0  0  0  0  0  0  0  0  0  0  0
   11.5823   -4.4060    0.0000 C   0  0  0  0  0  0  0  0  0  0  0  0
    5.0952   -4.4097    0.0000 C   0  0  0  0  0  0  0  0  0  0  0  0
   15.1800   -7.6240    0.0000 C   0  0  0  0  0  0  0  0  0  0  0  0
    6.8383   -5.5248    0.0000 C   0  0  0  0  0  0  0  0  0  0  0  0
   16.6205   -4.9925    0.0000 C   0  0  0  0  0  0  0  0  0  0  0  0
   11.3110   -6.0011    0.0000 C   0  0  0  0  0  0  0  0  0  0  0  0
    5.0397   -5.4498    0.0000 C   0  0  0  0  0  0  0  0  0  0  0  0
    5.9172   -6.0112    0.0000 C   0  0  0  0  0  0  0  0  0  0  0  0
    3.3454    1.5998    0.0000 C   0  0  0  0  0  0  0  0  0  0  0  0
   17.6202   -4.9697    0.0000 C   0  0  0  0  0  0  0  0  0  0  0  0
    9.1005    4.2182    0.0000 H   0  0  0  0  0  0  0  0  0  0  0  0
    7.1540    1.5884    0.0000 H   0  0  0  0  0  0  0  0  0  0  0  0
    9.8960    5.0923    0.0000 H   0  0  0  0  0  0  0  0  0  0  0  0
    9.2554    5.5667    0.0000 H   0  0  0  0  0  0  0  0  0  0  0  0
    7.7473   -1.6291    0.0000 H   0  0  0  0  0  0  0  0  0  0  0  0
    7.0581    2.7665    0.0000 H   0  0  0  0  0  0  0  0  0  0  0  0
    6.2742    2.6221    0.0000 H   0  0  0  0  0  0  0  0  0  0  0  0
   12.3510    4.5905    0.0000 H   0  0  0  0  0  0  0  0  0  0  0  0
   14.0605    3.7053    0.0000 H   0  0  0  0  0  0  0  0  0  0  0  0
   13.0804    3.0301    0.0000 H   0  0  0  0  0  0  0  0  0  0  0  0
    8.4458    3.9920    0.0000 H   0  0  0  0  0  0  0  0  0  0  0  0
   14.7736    2.8084    0.0000 H   0  0  0  0  0  0  0  0  0  0  0  0
   13.6477    2.4227    0.0000 H   0  0  0  0  0  0  0  0  0  0  0  0
    6.8724    0.9555    0.0000 H   0  0  0  0  0  0  0  0  0  0  0  0
   10.5037   -3.3916    0.0000 H   0  0  0  0  0  0  0  0  0  0  0  0
    6.8209   -0.8951    0.0000 H   0  0  0  0  0  0  0  0  0  0  0  0
    6.3914   -1.5665    0.0000 H   0  0  0  0  0  0  0  0  0  0  0  0
   11.7388    4.9146    0.0000 H   0  0  0  0  0  0  0  0  0  0  0  0
   15.2183    1.7524    0.0000 H   0  0  0  0  0  0  0  0  0  0  0  0
   14.0301    1.6847    0.0000 H   0  0  0  0  0  0  0  0  0  0  0  0
    5.6851    1.0393    0.0000 H   0  0  0  0  0  0  0  0  0  0  0  0
    6.4690    1.1837    0.0000 H   0  0  0  0  0  0  0  0  0  0  0  0
   13.6733   -2.5801    0.0000 H   0  0  0  0  0  0  0  0  0  0  0  0
    8.0176   -2.2668    0.0000 H   0  0  0  0  0  0  0  0  0  0  0  0
   15.3616    0.6155    0.0000 H   0  0  0  0  0  0  0  0  0  0  0  0
   14.1992    0.8709    0.0000 H   0  0  0  0  0  0  0  0  0  0  0  0
    9.3350   -3.5677    0.0000 H   0  0  0  0  0  0  0  0  0  0  0  0
    9.5325   -4.3399    0.0000 H   0  0  0  0  0  0  0  0  0  0  0  0
   13.9916   -2.4443    0.0000 H   0  0  0  0  0  0  0  0  0  0  0  0
   13.3849   -1.4205    0.0000 H   0  0  0  0  0  0  0  0  0  0  0  0
   11.1544   -3.6293    0.0000 H   0  0  0  0  0  0  0  0  0  0  0  0
    7.7527    3.7208    0.0000 H   0  0  0  0  0  0  0  0  0  0  0  0
   15.4233   -4.6906    0.0000 H   0  0  0  0  0  0  0  0  0  0  0  0
   13.2842   -3.8730    0.0000 H   0  0  0  0  0  0  0  0  0  0  0  0
   14.1371   -4.6504    0.0000 H   0  0  0  0  0  0  0  0  0  0  0  0
   14.1553   -5.4473    0.0000 H   0  0  0  0  0  0  0  0  0  0  0  0
    5.3547    2.4528    0.0000 H   0  0  0  0  0  0  0  0  0  0  0  0
    4.5708    2.3084    0.0000 H   0  0  0  0  0  0  0  0  0  0  0  0
    6.1841    4.4314    0.0000 H   0  0  0  0  0  0  0  0  0  0  0  0
   15.3566   -0.2106    0.0000 H   0  0  0  0  0  0  0  0  0  0  0  0
   15.6245   -6.2800    0.0000 H   0  0  0  0  0  0  0  0  0  0  0  0
   15.6064   -5.4832    0.0000 H   0  0  0  0  0  0  0  0  0  0  0  0
    8.7345    7.0004    0.0000 H   0  0  0  0  0  0  0  0  0  0  0  0
    5.5505   -2.6117    0.0000 H   0  0  0  0  0  0  0  0  0  0  0  0
    8.3535   -2.7394    0.0000 H   0  0  0  0  0  0  0  0  0  0  0  0
    5.5604    6.3502    0.0000 H   0  0  0  0  0  0  0  0  0  0  0  0
   14.1766   -6.3820    0.0000 H   0  0  0  0  0  0  0  0  0  0  0  0
   14.1947   -7.1788    0.0000 H   0  0  0  0  0  0  0  0  0  0  0  0
   16.3986   -3.5942    0.0000 H   0  0  0  0  0  0  0  0  0  0  0  0
    7.6594    8.2123    0.0000 H   0  0  0  0  0  0  0  0  0  0  0  0
    8.2798   -4.3577    0.0000 H   0  0  0  0  0  0  0  0  0  0  0  0
    6.0724    7.8871    0.0000 H   0  0  0  0  0  0  0  0  0  0  0  0
   14.2562    5.6301    0.0000 H   0  0  0  0  0  0  0  0  0  0  0  0
   14.3782    4.5632    0.0000 H   0  0  0  0  0  0  0  0  0  0  0  0
    9.8696   -5.8122    0.0000 H   0  0  0  0  0  0  0  0  0  0  0  0
   11.8701   -3.8568    0.0000 H   0  0  0  0  0  0  0  0  0  0  0  0
    4.5768   -4.0695    0.0000 H   0  0  0  0  0  0  0  0  0  0  0  0
   14.6503   -7.9462    0.0000 H   0  0  0  0  0  0  0  0  0  0  0  0
   15.5022   -8.1538    0.0000 H   0  0  0  0  0  0  0  0  0  0  0  0
   15.7098   -7.3019    0.0000 H   0  0  0  0  0  0  0  0  0  0  0  0
    7.3644   -5.8529    0.0000 H   0  0  0  0  0  0  0  0  0  0  0  0
   11.4010   -6.6146    0.0000 H   0  0  0  0  0  0  0  0  0  0  0  0
    4.4881   -5.7329    0.0000 H   0  0  0  0  0  0  0  0  0  0  0  0
    5.8913   -6.6306    0.0000 H   0  0  0  0  0  0  0  0  0  0  0  0
   17.6344   -5.5896    0.0000 H   0  0  0  0  0  0  0  0  0  0  0  0
   18.2401   -4.9556    0.0000 H   0  0  0  0  0  0  0  0  0  0  0  0
   17.6061   -4.3499    0.0000 H   0  0  0  0  0  0  0  0  0  0  0  0
    2.0000    1.1588    0.0000 H   0  0  0  0  0  0  0  0  0  0  0  0
    2.6965    0.3415    0.0000 H   0  0  0  0  0  0  0  0  0  0  0  0
    2.5800    2.7909    0.0000 H   0  0  0  0  0  0  0  0  0  0  0  0
    3.6361    2.9854    0.0000 H   0  0  0  0  0  0  0  0  0  0  0  0
  1 33  2  0  0  0  0
  2 35  2  0  0  0  0
  3 39  2  0  0  0  0
  4 44  2  0  0  0  0
  5 50  2  0  0  0  0
  6 52  2  0  0  0  0
  7 55  2  0  0  0  0
  8 56  2  0  0  0  0
  9 73  2  0  0  0  0
 10 25  1  0  0  0  0
 10 33  1  0  0  0  0
 10 89  1  0  0  0  0
 11 26  1  0  0  0  0
 11 39  1  0  0  0  0
 11 92  1  0  0  0  0
 12 30  1  0  0  0  0
 12 35  1  0  0  0  0
 12 96  1  0  0  0  0
 13 28  1  0  0  0  0
 13 44  1  0  0  0  0
 13102  1  0  0  0  0
 14 36  1  0  0  0  0
 14 50  1  0  0  0  0
 14109  1  0  0  0  0
 41 15  1  6  0  0  0
 15 56  1  0  0  0  0
 15112  1  0  0  0  0
 16 47  1  0  0  0  0
 16 49  1  0  0  0  0
 16117  1  0  0  0  0
 17 43  1  0  0  0  0
 17 55  1  0  0  0  0
 17118  1  0  0  0  0
 51 18  1  1  0  0  0
 18 73  1  0  0  0  0
 18127  1  0  0  0  0
 19 52  1  0  0  0  0
 19131  1  0  0  0  0
 19132  1  0  0  0  0
 20 59  1  0  0  0  0
 20 74  1  0  0  0  0
 20133  1  0  0  0  0
 21 54  1  0  0  0  0
 21 77  2  0  0  0  0
 22 69  1  0  0  0  0
 22 74  2  0  0  0  0
 23 77  1  0  0  0  0
 23146  1  0  0  0  0
 23147  1  0  0  0  0
 24 77  1  0  0  0  0
 24148  1  0  0  0  0
 24149  1  0  0  0  0
 25 27  1  1  0  0  0
 25 35  1  0  0  0  0
 25 79  1  0  0  0  0
 26 29  1  1  0  0  0
 26 33  1  0  0  0  0
 26 80  1  0  0  0  0
 27 34  1  0  0  0  0
 27 81  1  0  0  0  0
 27 82  1  0  0  0  0
 28 37  1  6  0  0  0
 28 39  1  0  0  0  0
 28 83  1  0  0  0  0
 29 40  1  0  0  0  0
 29 84  1  0  0  0  0
 29 85  1  0  0  0  0
 30 31  1  0  0  0  0
 30 52  1  6  0  0  0
 30 86  1  0  0  0  0
 31 32  1  0  0  0  0
 31 87  1  0  0  0  0
 31 88  1  0  0  0  0
 32 38  1  0  0  0  0
 32 90  1  0  0  0  0
 32 91  1  0  0  0  0
 34 42  1  0  0  0  0
 34 47  2  0  0  0  0
 36 44  1  0  0  0  0
 36 45  1  1  0  0  0
 36 93  1  0  0  0  0
 37 48  1  0  0  0  0
 37 94  1  0  0  0  0
 37 95  1  0  0  0  0
 38 43  1  0  0  0  0
 38 97  1  0  0  0  0
 38 98  1  0  0  0  0
 40 54  1  0  0  0  0
 40 99  1  0  0  0  0
 40100  1  0  0  0  0
 41 46  1  0  0  0  0
 41 50  1  0  0  0  0
 41101  1  0  0  0  0
 42 49  1  0  0  0  0
 42 58  2  0  0  0  0
 43103  1  0  0  0  0
 43104  1  0  0  0  0
 45 59  1  0  0  0  0
 45105  1  0  0  0  0
 45106  1  0  0  0  0
 46 55  1  0  0  0  0
 46107  1  0  0  0  0
 46108  1  0  0  0  0
 47110  1  0  0  0  0
 48 60  2  0  0  0  0
 48 61  1  0  0  0  0
 49 62  2  0  0  0  0
 51 53  1  0  0  0  0
 51 56  1  0  0  0  0
 51111  1  0  0  0  0
 53 57  1  0  0  0  0
 53113  1  0  0  0  0
 53114  1  0  0  0  0
 54115  1  0  0  0  0
 54116  1  0  0  0  0
 57 64  1  0  0  0  0
 57119  1  0  0  0  0
 57120  1  0  0  0  0
 58 65  1  0  0  0  0
 58121  1  0  0  0  0
 59 69  2  0  0  0  0
 60 63  1  0  0  0  0
 60122  1  0  0  0  0
 61 67  2  0  0  0  0
 61123  1  0  0  0  0
 62 68  1  0  0  0  0
 62124  1  0  0  0  0
 63 66  1  0  0  0  0
 63 70  2  0  0  0  0
 64 71  1  0  0  0  0
 64125  1  0  0  0  0
 64126  1  0  0  0  0
 65 68  2  0  0  0  0
 65128  1  0  0  0  0
 66 67  1  0  0  0  0
 66 72  2  0  0  0  0
 67129  1  0  0  0  0
 68130  1  0  0  0  0
 69134  1  0  0  0  0
 70 75  1  0  0  0  0
 70135  1  0  0  0  0
 71136  1  0  0  0  0
 71137  1  0  0  0  0
 71138  1  0  0  0  0
 72 76  1  0  0  0  0
 72139  1  0  0  0  0
 73 78  1  0  0  0  0
 74140  1  0  0  0  0
 75 76  2  0  0  0  0
 75141  1  0  0  0  0
 76142  1  0  0  0  0
 78143  1  0  0  0  0
 78144  1  0  0  0  0
 78145  1  0  0  0  0
M  END
> <PUBCHEM_COMPOUND_CID>
9898183

> <PUBCHEM_COMPOUND_CANONICALIZED>
1

> <PUBCHEM_CACTVS_COMPLEXITY>
2090

> <PUBCHEM_CACTVS_HBOND_ACCEPTOR>
11

> <PUBCHEM_CACTVS_HBOND_DONOR>
13

> <PUBCHEM_CACTVS_ROTATABLE_BOND>
17

> <PUBCHEM_CACTVS_SUBSKEYS>
AAADcfB//AAAAAAAAAAAAAAAAAAAAWLAAAAwYMAAAAAAAFjB/AAAHgAQAAAADCjBngQ/0PbJkACoAzV3dACCgC2xEqAJ2aG4dJiIaPrA2bGUIAholgLIyCcdicCOwAACAAASAACAAAQAACQAAAAAAAAAAA==

> <PUBCHEM_IUPAC_OPENEYE_NAME>
(3S,6S,9R,12S,15S,23S)-15-[[(2S)-2-acetamidohexanoyl]amino]-6-(3-guanidinopropyl)-12-(1H-imidazol-5-ylmethyl)-3-(1H-indol-3-ylmethyl)-9-(2-naphthylmethyl)-2,5,8,11,14,17-hexaoxo-1,4,7,10,13,18-hexazacyclotricosane-23-carboxamide

> <PUBCHEM_IUPAC_CAS_NAME>
(3S,6S,9R,12S,15S,23S)-15-[[(2S)-2-acetamido-1-oxohexyl]amino]-6-[3-(diaminomethylideneamino)propyl]-12-(1H-imidazol-5-ylmethyl)-3-(1H-indol-3-ylmethyl)-9-(2-naphthalenylmethyl)-2,5,8,11,14,17-hexaoxo-1,4,7,10,13,18-hexazacyclotricosane-23-carboxamide

> <PUBCHEM_IUPAC_NAME>
(3S,6S,9R,12S,15S,23S)-15-[[(2S)-2-acetamidohexanoyl]amino]-6-[3-(diaminomethylideneamino)propyl]-12-(1H-imidazol-5-ylmethyl)-3-(1H-indol-3-ylmethyl)-9-(naphthalen-2-ylmethyl)-2,5,8,11,14,17-hexaoxo-1,4,7,10,13,18-hexazacyclotricosane-23-carboxamide

> <PUBCHEM_IUPAC_SYSTEMATIC_NAME>
(3S,6S,9R,12S,15S,23S)-15-[[(2S)-2-acetamidohexanoyl]amino]-6-[3-[bis(azanyl)methylideneamino]propyl]-12-(1H-imidazol-5-ylmethyl)-3-(1H-indol-3-ylmethyl)-9-(naphthalen-2-ylmethyl)-2,5,8,11,14,17-hexakis(oxidanylidene)-1,4,7,10,13,18-hexazacyclotricosane-23-carboxamide

> <PUBCHEM_IUPAC_TRADITIONAL_NAME>
(3S,6S,9R,12S,15S,23S)-15-[[(2S)-2-acetamidohexanoyl]amino]-6-(3-guanidinopropyl)-12-(1H-imidazol-5-ylmethyl)-3-(1H-indol-3-ylmethyl)-2,5,8,11,14,17-hexaketo-9-(2-naphthylmethyl)-1,4,7,10,13,18-hexazacyclotricosane-23-carboxamide

> <PUBCHEM_IUPAC_INCHI>
InChI=1S/C54H71N15O9/c1-3-4-15-40(63-31(2)70)48(73)69-45-27-46(71)59-21-10-9-17-39(47(55)72)64-51(76)43(25-35-28-61-38-16-8-7-14-37(35)38)67-49(74)41(18-11-22-60-54(56)57)65-50(75)42(24-32-19-20-33-12-5-6-13-34(33)23-32)66-52(77)44(68-53(45)78)26-36-29-58-30-62-36/h5-8,12-14,16,19-20,23,28-30,39-45,61H,3-4,9-11,15,17-18,21-22,24-27H2,1-2H3,(H2,55,72)(H,58,62)(H,59,71)(H,63,70)(H,64,76)(H,65,75)(H,66,77)(H,67,74)(H,68,78)(H,69,73)(H4,56,57,60)/t39-,40-,41-,42+,43-,44-,45-/m0/s1

> <PUBCHEM_IUPAC_INCHIKEY>
GGYWLZFXFKFWKL-XOJVSUSESA-N

> <PUBCHEM_XLOGP3_AA>
1.3

> <PUBCHEM_EXACT_MASS>
1073.556

> <PUBCHEM_MOLECULAR_FORMULA>
C54H71N15O9

> <PUBCHEM_MOLECULAR_WEIGHT>
1074.258

> <PUBCHEM_OPENEYE_CAN_SMILES>
CCCCC(C(=O)NC1CC(=O)NCCCCC(NC(=O)C(NC(=O)C(NC(=O)C(NC(=O)C(NC1=O)CC2=CN=CN2)CC3=CC4=CC=CC=C4C=C3)CCCN=C(N)N)CC5=CNC6=CC=CC=C65)C(=O)N)NC(=O)C

> <PUBCHEM_OPENEYE_ISO_SMILES>
CCCC[C@@H](C(=O)N[C@H]1CC(=O)NCCCC[C@H](NC(=O)[C@@H](NC(=O)[C@@H](NC(=O)[C@H](NC(=O)[C@@H](NC1=O)CC2=CN=CN2)CC3=CC4=CC=CC=C4C=C3)CCCN=C(N)N)CC5=CNC6=CC=CC=C65)C(=O)N)NC(=O)C

> <PUBCHEM_CACTVS_TPSA>
385

> <PUBCHEM_MONOISOTOPIC_WEIGHT>
1073.556

> <PUBCHEM_TOTAL_CHARGE>
0

> <PUBCHEM_HEAVY_ATOM_COUNT>
78

> <PUBCHEM_ATOM_DEF_STEREO_COUNT>
7

> <PUBCHEM_ATOM_UDEF_STEREO_COUNT>
0

> <PUBCHEM_BOND_DEF_STEREO_COUNT>
0

> <PUBCHEM_BOND_UDEF_STEREO_COUNT>
0

> <PUBCHEM_ISOTOPIC_ATOM_COUNT>
0

> <PUBCHEM_COMPONENT_COUNT>
1

> <PUBCHEM_CACTVS_TAUTO_COUNT>
996

> <PUBCHEM_COORDINATE_TYPE>
1
5
255

> <PUBCHEM_BONDANNOTATIONS>
41  15  6
16  47  8
16  49  8
51  18  5
20  59  8
20  74  8
22  69  8
22  74  8
25  27  5
26  29  5
28  37  6
30  52  6
34  42  8
34  47  8
36  45  5
42  49  8
42  58  8
48  60  8
48  61  8
49  62  8
58  65  8
59  69  8
60  63  8
61  67  8
62  68  8
63  66  8
63  70  8
65  68  8
66  67  8
66  72  8
70  75  8
72  76  8
75  76  8

$$$$
