118735610
  -OEChem-03161706372D

102106  0     1  0  0  0  0  0999 V2000
    9.9589   -5.5600    0.0000 I   0  0  0  0  0  0  0  0  0  0  0  0
    8.2268    0.4400    0.0000 O   0  0  0  0  0  0  0  0  0  0  0  0
   11.6909    1.4400    0.0000 O   0  0  0  0  0  0  0  0  0  0  0  0
    6.9000   -0.4467    0.0000 O   0  0  0  0  0  0  0  0  0  0  0  0
   12.5570    4.9400    0.0000 O   0  0  0  0  0  0  0  0  0  0  0  0
    8.3314   -3.1524    0.0000 O   0  0  0  0  0  0  0  0  0  0  0  0
    9.9589    0.4400    0.0000 N   0  0  0  0  0  0  0  0  0  0  0  0
    8.2268   -1.5600    0.0000 N   0  0  0  0  0  0  0  0  0  0  0  0
   10.8249    2.9400    0.0000 N   0  0  0  0  0  0  0  0  0  0  0  0
    6.5992   -3.1524    0.0000 N   0  0  0  0  0  0  0  0  0  0  0  0
    4.3713   -4.2380    0.0000 N   0  0  0  0  0  0  0  0  0  0  0  0
    6.4948    1.4400    0.0000 N   0  0  0  0  0  0  0  0  0  0  0  0
   10.8249    4.9400    0.0000 N   0  0  0  0  0  0  0  0  0  0  0  0
    4.7627    1.4400    0.0000 N   0  0  0  0  0  0  0  0  0  0  0  0
    5.6288    2.9400    0.0000 N   0  0  0  0  0  0  0  0  0  0  0  0
    9.9589    1.4400    0.0000 C   0  0  1  0  0  0  0  0  0  0  0  0
    9.0929   -1.0600    0.0000 C   0  0  2  0  0  0  0  0  0  0  0  0
    9.0929    1.9400    0.0000 C   0  0  0  0  0  0  0  0  0  0  0  0
    6.5992   -2.1523    0.0000 C   0  0  1  0  0  0  0  0  0  0  0  0
    5.6144   -1.9788    0.0000 C   0  0  0  0  0  0  0  0  0  0  0  0
    9.9589   -1.5600    0.0000 C   0  0  0  0  0  0  0  0  0  0  0  0
    9.0929   -0.0600    0.0000 C   0  0  0  0  0  0  0  0  0  0  0  0
    8.2268    1.4400    0.0000 C   0  0  0  0  0  0  0  0  0  0  0  0
   10.8249    1.9400    0.0000 C   0  0  0  0  0  0  0  0  0  0  0  0
    4.9716   -2.7447    0.0000 C   0  0  0  0  0  0  0  0  0  0  0  0
    7.2420   -1.3864    0.0000 C   0  0  0  0  0  0  0  0  0  0  0  0
   11.6909    3.4400    0.0000 C   0  0  2  0  0  0  0  0  0  0  0  0
    3.9800   -2.6746    0.0000 C   0  0  0  0  0  0  0  0  0  0  0  0
   12.5570    2.9400    0.0000 C   0  0  0  0  0  0  0  0  0  0  0  0
    9.9589   -2.5600    0.0000 C   0  0  0  0  0  0  0  0  0  0  0  0
    3.6070   -3.6023    0.0000 C   0  0  0  0  0  0  0  0  0  0  0  0
    7.3608    1.9400    0.0000 C   0  0  0  0  0  0  0  0  0  0  0  0
    5.2129   -3.7091    0.0000 C   0  0  0  0  0  0  0  0  0  0  0  0
   13.4230    3.4400    0.0000 C   0  0  0  0  0  0  0  0  0  0  0  0
   11.6909    4.4400    0.0000 C   0  0  0  0  0  0  0  0  0  0  0  0
    3.3630   -1.8876    0.0000 C   0  0  0  0  0  0  0  0  0  0  0  0
    2.6170   -3.7432    0.0000 C   0  0  0  0  0  0  0  0  0  0  0  0
   10.8249   -3.0600    0.0000 C   0  0  0  0  0  0  0  0  0  0  0  0
    9.0929   -3.0600    0.0000 C   0  0  0  0  0  0  0  0  0  0  0  0
   14.2890    2.9400    0.0000 C   0  0  0  0  0  0  0  0  0  0  0  0
   13.4230    4.4400    0.0000 C   0  0  0  0  0  0  0  0  0  0  0  0
    7.4653   -3.6524    0.0000 C   0  0  0  0  0  0  0  0  0  0  0  0
   15.1550    3.4400    0.0000 C   0  0  0  0  0  0  0  0  0  0  0  0
    2.3730   -2.0285    0.0000 C   0  0  0  0  0  0  0  0  0  0  0  0
   15.1550    4.4400    0.0000 C   0  0  0  0  0  0  0  0  0  0  0  0
    2.0000   -2.9564    0.0000 C   0  0  0  0  0  0  0  0  0  0  0  0
   14.2890    4.9400    0.0000 C   0  0  0  0  0  0  0  0  0  0  0  0
   10.8249   -4.0600    0.0000 C   0  0  0  0  0  0  0  0  0  0  0  0
    9.0929   -4.0600    0.0000 C   0  0  0  0  0  0  0  0  0  0  0  0
    9.9589   -4.5600    0.0000 C   0  0  0  0  0  0  0  0  0  0  0  0
    7.4653   -4.6524    0.0000 C   0  0  0  0  0  0  0  0  0  0  0  0
   16.0490    2.9053    0.0000 C   0  0  0  0  0  0  0  0  0  0  0  0
   16.0490    4.9747    0.0000 C   0  0  0  0  0  0  0  0  0  0  0  0
    5.6288    1.9400    0.0000 C   0  0  0  0  0  0  0  0  0  0  0  0
   16.9551    3.4192    0.0000 C   0  0  0  0  0  0  0  0  0  0  0  0
   16.9551    4.4608    0.0000 C   0  0  0  0  0  0  0  0  0  0  0  0
   10.4958    1.1300    0.0000 H   0  0  0  0  0  0  0  0  0  0  0  0
    8.5559   -0.7500    0.0000 H   0  0  0  0  0  0  0  0  0  0  0  0
    9.4914    2.4150    0.0000 H   0  0  0  0  0  0  0  0  0  0  0  0
    8.6943    2.4150    0.0000 H   0  0  0  0  0  0  0  0  0  0  0  0
    7.1818   -2.3644    0.0000 H   0  0  0  0  0  0  0  0  0  0  0  0
    5.8265   -1.3961    0.0000 H   0  0  0  0  0  0  0  0  0  0  0  0
    5.0775   -1.6687    0.0000 H   0  0  0  0  0  0  0  0  0  0  0  0
   10.5695   -1.6677    0.0000 H   0  0  0  0  0  0  0  0  0  0  0  0
   10.1709   -0.9774    0.0000 H   0  0  0  0  0  0  0  0  0  0  0  0
   10.4958    0.1300    0.0000 H   0  0  0  0  0  0  0  0  0  0  0  0
    7.8283    0.9651    0.0000 H   0  0  0  0  0  0  0  0  0  0  0  0
    8.6254    0.9651    0.0000 H   0  0  0  0  0  0  0  0  0  0  0  0
    8.2268   -2.1800    0.0000 H   0  0  0  0  0  0  0  0  0  0  0  0
   11.1540    3.7500    0.0000 H   0  0  0  0  0  0  0  0  0  0  0  0
   10.2880    3.2500    0.0000 H   0  0  0  0  0  0  0  0  0  0  0  0
   12.1584    2.4651    0.0000 H   0  0  0  0  0  0  0  0  0  0  0  0
   12.9555    2.4651    0.0000 H   0  0  0  0  0  0  0  0  0  0  0  0
    6.0623   -3.4624    0.0000 H   0  0  0  0  0  0  0  0  0  0  0  0
    7.7593    2.4150    0.0000 H   0  0  0  0  0  0  0  0  0  0  0  0
    6.9623    2.4150    0.0000 H   0  0  0  0  0  0  0  0  0  0  0  0
    5.7882   -3.9403    0.0000 H   0  0  0  0  0  0  0  0  0  0  0  0
    4.3302   -4.8567    0.0000 H   0  0  0  0  0  0  0  0  0  0  0  0
    3.5943   -1.3124    0.0000 H   0  0  0  0  0  0  0  0  0  0  0  0
    2.3857   -4.3185    0.0000 H   0  0  0  0  0  0  0  0  0  0  0  0
   11.3619   -2.7500    0.0000 H   0  0  0  0  0  0  0  0  0  0  0  0
    8.5559   -2.7500    0.0000 H   0  0  0  0  0  0  0  0  0  0  0  0
   14.2890    2.3200    0.0000 H   0  0  0  0  0  0  0  0  0  0  0  0
   12.8861    4.7500    0.0000 H   0  0  0  0  0  0  0  0  0  0  0  0
    1.9904   -1.5406    0.0000 H   0  0  0  0  0  0  0  0  0  0  0  0
    1.3862   -3.0437    0.0000 H   0  0  0  0  0  0  0  0  0  0  0  0
   14.2890    5.5600    0.0000 H   0  0  0  0  0  0  0  0  0  0  0  0
   11.3619   -4.3700    0.0000 H   0  0  0  0  0  0  0  0  0  0  0  0
    8.5559   -4.3700    0.0000 H   0  0  0  0  0  0  0  0  0  0  0  0
   10.8249    5.5600    0.0000 H   0  0  0  0  0  0  0  0  0  0  0  0
   10.2880    4.6300    0.0000 H   0  0  0  0  0  0  0  0  0  0  0  0
    6.8453   -4.6524    0.0000 H   0  0  0  0  0  0  0  0  0  0  0  0
    7.4653   -5.2724    0.0000 H   0  0  0  0  0  0  0  0  0  0  0  0
    8.0853   -4.6524    0.0000 H   0  0  0  0  0  0  0  0  0  0  0  0
   16.0418    2.2854    0.0000 H   0  0  0  0  0  0  0  0  0  0  0  0
   16.0418    5.5946    0.0000 H   0  0  0  0  0  0  0  0  0  0  0  0
   17.4908    3.1071    0.0000 H   0  0  0  0  0  0  0  0  0  0  0  0
   17.4908    4.7729    0.0000 H   0  0  0  0  0  0  0  0  0  0  0  0
    5.0918    3.2500    0.0000 H   0  0  0  0  0  0  0  0  0  0  0  0
    6.1657    3.2500    0.0000 H   0  0  0  0  0  0  0  0  0  0  0  0
    4.2258    1.7500    0.0000 H   0  0  0  0  0  0  0  0  0  0  0  0
    4.7627    0.8200    0.0000 H   0  0  0  0  0  0  0  0  0  0  0  0
  1 50  1  0  0  0  0
  2 22  2  0  0  0  0
  3 24  2  0  0  0  0
  4 26  2  0  0  0  0
  5 35  2  0  0  0  0
  6 42  2  0  0  0  0
 16  7  1  1  0  0  0
  7 22  1  0  0  0  0
  7 66  1  0  0  0  0
 17  8  1  1  0  0  0
  8 26  1  0  0  0  0
  8 69  1  0  0  0  0
  9 24  1  0  0  0  0
 27  9  1  1  0  0  0
  9 71  1  0  0  0  0
 19 10  1  1  0  0  0
 10 42  1  0  0  0  0
 10 74  1  0  0  0  0
 11 31  1  0  0  0  0
 11 33  1  0  0  0  0
 11 78  1  0  0  0  0
 12 32  1  0  0  0  0
 12 54  2  0  0  0  0
 13 35  1  0  0  0  0
 13 90  1  0  0  0  0
 13 91  1  0  0  0  0
 14 54  1  0  0  0  0
 14101  1  0  0  0  0
 14102  1  0  0  0  0
 15 54  1  0  0  0  0
 15 99  1  0  0  0  0
 15100  1  0  0  0  0
 16 18  1  0  0  0  0
 16 24  1  0  0  0  0
 16 57  1  0  0  0  0
 17 21  1  0  0  0  0
 17 22  1  0  0  0  0
 17 58  1  0  0  0  0
 18 23  1  0  0  0  0
 18 59  1  0  0  0  0
 18 60  1  0  0  0  0
 19 20  1  0  0  0  0
 19 26  1  0  0  0  0
 19 61  1  0  0  0  0
 20 25  1  0  0  0  0
 20 62  1  0  0  0  0
 20 63  1  0  0  0  0
 21 30  1  0  0  0  0
 21 64  1  0  0  0  0
 21 65  1  0  0  0  0
 23 32  1  0  0  0  0
 23 67  1  0  0  0  0
 23 68  1  0  0  0  0
 25 28  1  0  0  0  0
 25 33  2  0  0  0  0
 27 29  1  0  0  0  0
 27 35  1  0  0  0  0
 27 70  1  0  0  0  0
 28 31  1  0  0  0  0
 28 36  2  0  0  0  0
 29 34  1  0  0  0  0
 29 72  1  0  0  0  0
 29 73  1  0  0  0  0
 30 38  2  0  0  0  0
 30 39  1  0  0  0  0
 31 37  2  0  0  0  0
 32 75  1  0  0  0  0
 32 76  1  0  0  0  0
 33 77  1  0  0  0  0
 34 40  2  0  0  0  0
 34 41  1  0  0  0  0
 36 44  1  0  0  0  0
 36 79  1  0  0  0  0
 37 46  1  0  0  0  0
 37 80  1  0  0  0  0
 38 48  1  0  0  0  0
 38 81  1  0  0  0  0
 39 49  2  0  0  0  0
 39 82  1  0  0  0  0
 40 43  1  0  0  0  0
 40 83  1  0  0  0  0
 41 47  2  0  0  0  0
 41 84  1  0  0  0  0
 42 51  1  0  0  0  0
 43 45  1  0  0  0  0
 43 52  2  0  0  0  0
 44 46  2  0  0  0  0
 44 85  1  0  0  0  0
 45 47  1  0  0  0  0
 45 53  2  0  0  0  0
 46 86  1  0  0  0  0
 47 87  1  0  0  0  0
 48 50  2  0  0  0  0
 48 88  1  0  0  0  0
 49 50  1  0  0  0  0
 49 89  1  0  0  0  0
 51 92  1  0  0  0  0
 51 93  1  0  0  0  0
 51 94  1  0  0  0  0
 52 55  1  0  0  0  0
 52 95  1  0  0  0  0
 53 56  1  0  0  0  0
 53 96  1  0  0  0  0
 55 56  2  0  0  0  0
 55 97  1  0  0  0  0
 56 98  1  0  0  0  0
M  END
> <PUBCHEM_COMPOUND_CID>
118735610

> <PUBCHEM_COMPOUND_CANONICALIZED>
1

> <PUBCHEM_CACTVS_COMPLEXITY>
1370

> <PUBCHEM_CACTVS_HBOND_ACCEPTOR>
6

> <PUBCHEM_CACTVS_HBOND_DONOR>
8

> <PUBCHEM_CACTVS_ROTATABLE_BOND>
18

> <PUBCHEM_CACTVS_SUBSKEYS>
AAADcfB/+AAAAgAAAAAAAAAAAAAAAWAAAAAwYMGAAAAAAFjB9AAAHgAwAAAADCjDngQ/wPLJkACoAzV3dACCgCExAiAI2aG4ZJgIYPLAkbGUIAhglgDIyAcYicCOwAACAAASAACAAAQAACQAAAAAAAAAAA==

> <PUBCHEM_IUPAC_OPENEYE_NAME>
(2S)-2-[[(2R)-2-[[(2S)-2-acetamido-3-(1H-indol-3-yl)propanoyl]amino]-3-(4-iodophenyl)propanoyl]amino]-N-[(1R)-2-amino-1-(2-naphthylmethyl)-2-oxo-ethyl]-5-guanidino-pentanamide

> <PUBCHEM_IUPAC_CAS_NAME>
(2S)-2-[[(2R)-2-[[(2S)-2-acetamido-3-(1H-indol-3-yl)-1-oxopropyl]amino]-3-(4-iodophenyl)-1-oxopropyl]amino]-N-[(2R)-1-amino-3-(2-naphthalenyl)-1-oxopropan-2-yl]-5-(diaminomethylideneamino)pentanamide

> <PUBCHEM_IUPAC_NAME>
(2S)-2-[[(2R)-2-[[(2S)-2-acetamido-3-(1H-indol-3-yl)propanoyl]amino]-3-(4-iodophenyl)propanoyl]amino]-N-[(2R)-1-amino-3-naphthalen-2-yl-1-oxopropan-2-yl]-5-(diaminomethylideneamino)pentanamide

> <PUBCHEM_IUPAC_SYSTEMATIC_NAME>
(2S)-2-[[(2R)-2-[[(2S)-2-acetamido-3-(1H-indol-3-yl)propanoyl]amino]-3-(4-iodophenyl)propanoyl]amino]-N-[(2R)-1-azanyl-3-naphthalen-2-yl-1-oxidanylidene-propan-2-yl]-5-[bis(azanyl)methylideneamino]pentanamide

> <PUBCHEM_IUPAC_TRADITIONAL_NAME>
(2S)-2-[[(2R)-2-[[(2S)-2-acetamido-3-(1H-indol-3-yl)propanoyl]amino]-3-(4-iodophenyl)propanoyl]amino]-N-[(1R)-2-amino-2-keto-1-(2-naphthylmethyl)ethyl]-5-guanidino-valeramide

> <PUBCHEM_IUPAC_INCHI>
InChI=1S/C41H46IN9O5/c1-24(52)48-36(22-29-23-47-32-10-5-4-9-31(29)32)40(56)51-35(20-25-13-16-30(42)17-14-25)39(55)49-33(11-6-18-46-41(44)45)38(54)50-34(37(43)53)21-26-12-15-27-7-2-3-8-28(27)19-26/h2-5,7-10,12-17,19,23,33-36,47H,6,11,18,20-22H2,1H3,(H2,43,53)(H,48,52)(H,49,55)(H,50,54)(H,51,56)(H4,44,45,46)/t33-,34+,35+,36-/m0/s1

> <PUBCHEM_IUPAC_INCHIKEY>
CFEVUEANPOINQN-NZKHRDNMSA-N

> <PUBCHEM_XLOGP3_AA>
3.7

> <PUBCHEM_EXACT_MASS>
871.267

> <PUBCHEM_MOLECULAR_FORMULA>
C41H46IN9O5

> <PUBCHEM_MOLECULAR_WEIGHT>
871.781

> <PUBCHEM_OPENEYE_CAN_SMILES>
CC(=O)NC(CC1=CNC2=CC=CC=C21)C(=O)NC(CC3=CC=C(C=C3)I)C(=O)NC(CCCN=C(N)N)C(=O)NC(CC4=CC5=CC=CC=C5C=C4)C(=O)N

> <PUBCHEM_OPENEYE_ISO_SMILES>
CC(=O)N[C@@H](CC1=CNC2=CC=CC=C21)C(=O)N[C@H](CC3=CC=C(C=C3)I)C(=O)N[C@@H](CCCN=C(N)N)C(=O)N[C@H](CC4=CC5=CC=CC=C5C=C4)C(=O)N

> <PUBCHEM_CACTVS_TPSA>
240

> <PUBCHEM_MONOISOTOPIC_WEIGHT>
871.267

> <PUBCHEM_TOTAL_CHARGE>
0

> <PUBCHEM_HEAVY_ATOM_COUNT>
56

> <PUBCHEM_ATOM_DEF_STEREO_COUNT>
4

> <PUBCHEM_ATOM_UDEF_STEREO_COUNT>
0

> <PUBCHEM_BOND_DEF_STEREO_COUNT>
0

> <PUBCHEM_BOND_UDEF_STEREO_COUNT>
0

> <PUBCHEM_ISOTOPIC_ATOM_COUNT>
0

> <PUBCHEM_COMPONENT_COUNT>
1

> <PUBCHEM_CACTVS_TAUTO_COUNT>
996

> <PUBCHEM_COORDINATE_TYPE>
1
5
255

> <PUBCHEM_BONDANNOTATIONS>
19  10  5
11  31  8
11  33  8
25  28  8
25  33  8
28  31  8
28  36  8
30  38  8
30  39  8
31  37  8
34  40  8
34  41  8
36  44  8
37  46  8
38  48  8
39  49  8
40  43  8
41  47  8
43  45  8
43  52  8
44  46  8
45  47  8
45  53  8
48  50  8
49  50  8
52  55  8
53  56  8
55  56  8
16  7  5
17  8  5
27  9  5

$$$$
