118735607
  -OEChem-03161706382D

 97101  0     1  0  0  0  0  0999 V2000
   12.4603   -1.5158    0.0000 I   0  0  0  0  0  0  0  0  0  0  0  0
    7.2641    3.4842    0.0000 O   0  0  0  0  0  0  0  0  0  0  0  0
    7.2641    4.4842    0.0000 O   0  0  0  0  0  0  0  0  0  0  0  0
    6.3981   -0.0158    0.0000 O   0  0  0  0  0  0  0  0  0  0  0  0
    6.3981   -1.0158    0.0000 O   0  0  0  0  0  0  0  0  0  0  0  0
    9.6301   -2.1498    0.0000 O   0  0  0  0  0  0  0  0  0  0  0  0
    5.5321    3.4842    0.0000 N   0  0  0  0  0  0  0  0  0  0  0  0
    7.2641    1.4842    0.0000 N   0  0  0  0  0  0  0  0  0  0  0  0
    8.1301   -1.0158    0.0000 N   0  0  0  0  0  0  0  0  0  0  0  0
    6.3981    5.9842    0.0000 N   0  0  0  0  0  0  0  0  0  0  0  0
    8.1301   -3.0158    0.0000 N   0  0  0  0  0  0  0  0  0  0  0  0
    4.6660   -1.0158    0.0000 N   0  0  0  0  0  0  0  0  0  0  0  0
    5.8981   -5.5456    0.0000 N   0  0  0  0  0  0  0  0  0  0  0  0
    3.8000   -2.5158    0.0000 N   0  0  0  0  0  0  0  0  0  0  0  0
    2.9340   -1.0158    0.0000 N   0  0  0  0  0  0  0  0  0  0  0  0
    5.5321    4.4842    0.0000 C   0  0  1  0  0  0  0  0  0  0  0  0
    4.6660    4.9842    0.0000 C   0  0  0  0  0  0  0  0  0  0  0  0
    4.6660    2.9842    0.0000 C   0  0  0  0  0  0  0  0  0  0  0  0
    6.3981    1.9842    0.0000 C   0  0  2  0  0  0  0  0  0  0  0  0
    3.8000    4.4842    0.0000 C   0  0  0  0  0  0  0  0  0  0  0  0
    3.8000    3.4842    0.0000 C   0  0  0  0  0  0  0  0  0  0  0  0
    6.3981    2.9842    0.0000 C   0  0  0  0  0  0  0  0  0  0  0  0
    5.5321    1.4842    0.0000 C   0  0  0  0  0  0  0  0  0  0  0  0
    6.3981    4.9842    0.0000 C   0  0  0  0  0  0  0  0  0  0  0  0
    2.9061    5.0189    0.0000 C   0  0  0  0  0  0  0  0  0  0  0  0
    5.5321    0.4842    0.0000 C   0  0  0  0  0  0  0  0  0  0  0  0
    2.9061    2.9496    0.0000 C   0  0  0  0  0  0  0  0  0  0  0  0
    8.1301   -0.0158    0.0000 C   0  0  1  0  0  0  0  0  0  0  0  0
    7.2641    0.4842    0.0000 C   0  0  0  0  0  0  0  0  0  0  0  0
    2.0000    4.5050    0.0000 C   0  0  0  0  0  0  0  0  0  0  0  0
    2.0000    3.4634    0.0000 C   0  0  0  0  0  0  0  0  0  0  0  0
    8.9962    0.4842    0.0000 C   0  0  0  0  0  0  0  0  0  0  0  0
    4.6660   -0.0158    0.0000 C   0  0  0  0  0  0  0  0  0  0  0  0
    7.2641   -2.5158    0.0000 C   0  0  1  0  0  0  0  0  0  0  0  0
    6.3981   -3.0158    0.0000 C   0  0  0  0  0  0  0  0  0  0  0  0
    7.2641   -1.5158    0.0000 C   0  0  0  0  0  0  0  0  0  0  0  0
    6.3981   -4.0158    0.0000 C   0  0  0  0  0  0  0  0  0  0  0  0
    9.8622   -0.0158    0.0000 C   0  0  0  0  0  0  0  0  0  0  0  0
    7.2028   -4.5994    0.0000 C   0  0  0  0  0  0  0  0  0  0  0  0
    6.8922   -5.5499    0.0000 C   0  0  0  0  0  0  0  0  0  0  0  0
    5.5934   -4.5994    0.0000 C   0  0  0  0  0  0  0  0  0  0  0  0
    9.8622   -1.0158    0.0000 C   0  0  0  0  0  0  0  0  0  0  0  0
   10.7282    0.4842    0.0000 C   0  0  0  0  0  0  0  0  0  0  0  0
    8.1813   -4.3932    0.0000 C   0  0  0  0  0  0  0  0  0  0  0  0
    7.5600   -6.2942    0.0000 C   0  0  0  0  0  0  0  0  0  0  0  0
    9.1301   -3.0158    0.0000 C   0  0  0  0  0  0  0  0  0  0  0  0
   10.7282   -1.5158    0.0000 C   0  0  0  0  0  0  0  0  0  0  0  0
   11.5942   -0.0158    0.0000 C   0  0  0  0  0  0  0  0  0  0  0  0
    3.8000   -1.5158    0.0000 C   0  0  0  0  0  0  0  0  0  0  0  0
    8.8492   -5.1375    0.0000 C   0  0  0  0  0  0  0  0  0  0  0  0
    8.5385   -6.0880    0.0000 C   0  0  0  0  0  0  0  0  0  0  0  0
   11.5942   -1.0158    0.0000 C   0  0  0  0  0  0  0  0  0  0  0  0
    9.6301   -3.8818    0.0000 C   0  0  0  0  0  0  0  0  0  0  0  0
    6.0690    4.1742    0.0000 H   0  0  0  0  0  0  0  0  0  0  0  0
    5.0646    5.4592    0.0000 H   0  0  0  0  0  0  0  0  0  0  0  0
    4.2675    5.4592    0.0000 H   0  0  0  0  0  0  0  0  0  0  0  0
    4.2675    2.5093    0.0000 H   0  0  0  0  0  0  0  0  0  0  0  0
    5.0646    2.5093    0.0000 H   0  0  0  0  0  0  0  0  0  0  0  0
    6.3981    1.3642    0.0000 H   0  0  0  0  0  0  0  0  0  0  0  0
    5.3200    2.0668    0.0000 H   0  0  0  0  0  0  0  0  0  0  0  0
    4.9215    1.3766    0.0000 H   0  0  0  0  0  0  0  0  0  0  0  0
    7.8010    1.7942    0.0000 H   0  0  0  0  0  0  0  0  0  0  0  0
    2.9132    5.6388    0.0000 H   0  0  0  0  0  0  0  0  0  0  0  0
    5.7441   -0.0984    0.0000 H   0  0  0  0  0  0  0  0  0  0  0  0
    6.1426    0.5919    0.0000 H   0  0  0  0  0  0  0  0  0  0  0  0
    2.9132    2.3296    0.0000 H   0  0  0  0  0  0  0  0  0  0  0  0
    7.5932   -0.3258    0.0000 H   0  0  0  0  0  0  0  0  0  0  0  0
    1.4643    4.8171    0.0000 H   0  0  0  0  0  0  0  0  0  0  0  0
    1.4643    3.1513    0.0000 H   0  0  0  0  0  0  0  0  0  0  0  0
    9.3947    0.9592    0.0000 H   0  0  0  0  0  0  0  0  0  0  0  0
    8.5976    0.9592    0.0000 H   0  0  0  0  0  0  0  0  0  0  0  0
    4.4540    0.5668    0.0000 H   0  0  0  0  0  0  0  0  0  0  0  0
    4.0555   -0.1234    0.0000 H   0  0  0  0  0  0  0  0  0  0  0  0
    8.6671   -1.3258    0.0000 H   0  0  0  0  0  0  0  0  0  0  0  0
    7.8010   -2.2058    0.0000 H   0  0  0  0  0  0  0  0  0  0  0  0
    6.9350    6.2942    0.0000 H   0  0  0  0  0  0  0  0  0  0  0  0
    5.8612    6.2942    0.0000 H   0  0  0  0  0  0  0  0  0  0  0  0
    6.1860   -2.4332    0.0000 H   0  0  0  0  0  0  0  0  0  0  0  0
    5.7875   -3.1234    0.0000 H   0  0  0  0  0  0  0  0  0  0  0  0
    8.1301   -3.6358    0.0000 H   0  0  0  0  0  0  0  0  0  0  0  0
    5.0040   -4.4068    0.0000 H   0  0  0  0  0  0  0  0  0  0  0  0
    5.5319   -6.0459    0.0000 H   0  0  0  0  0  0  0  0  0  0  0  0
    9.3252   -1.3258    0.0000 H   0  0  0  0  0  0  0  0  0  0  0  0
   10.7282    1.1042    0.0000 H   0  0  0  0  0  0  0  0  0  0  0  0
    8.3739   -3.8038    0.0000 H   0  0  0  0  0  0  0  0  0  0  0  0
    7.3674   -6.8835    0.0000 H   0  0  0  0  0  0  0  0  0  0  0  0
   10.7282   -2.1358    0.0000 H   0  0  0  0  0  0  0  0  0  0  0  0
   12.1312    0.2942    0.0000 H   0  0  0  0  0  0  0  0  0  0  0  0
    9.4558   -5.0096    0.0000 H   0  0  0  0  0  0  0  0  0  0  0  0
    8.9526   -6.5495    0.0000 H   0  0  0  0  0  0  0  0  0  0  0  0
    9.0932   -4.1918    0.0000 H   0  0  0  0  0  0  0  0  0  0  0  0
    9.9401   -4.4188    0.0000 H   0  0  0  0  0  0  0  0  0  0  0  0
   10.1671   -3.5718    0.0000 H   0  0  0  0  0  0  0  0  0  0  0  0
    2.3970   -1.3258    0.0000 H   0  0  0  0  0  0  0  0  0  0  0  0
    2.9340   -0.3958    0.0000 H   0  0  0  0  0  0  0  0  0  0  0  0
    3.2631   -2.8258    0.0000 H   0  0  0  0  0  0  0  0  0  0  0  0
    4.3369   -2.8258    0.0000 H   0  0  0  0  0  0  0  0  0  0  0  0
  1 52  1  0  0  0  0
  2 22  2  0  0  0  0
  3 24  2  0  0  0  0
  4 29  2  0  0  0  0
  5 36  2  0  0  0  0
  6 46  2  0  0  0  0
  7 16  1  0  0  0  0
  7 18  1  0  0  0  0
  7 22  1  0  0  0  0
 19  8  1  1  0  0  0
  8 29  1  0  0  0  0
  8 62  1  0  0  0  0
 28  9  1  1  0  0  0
  9 36  1  0  0  0  0
  9 74  1  0  0  0  0
 10 24  1  0  0  0  0
 10 76  1  0  0  0  0
 10 77  1  0  0  0  0
 34 11  1  1  0  0  0
 11 46  1  0  0  0  0
 11 80  1  0  0  0  0
 12 33  1  0  0  0  0
 12 49  2  0  0  0  0
 13 40  1  0  0  0  0
 13 41  1  0  0  0  0
 13 82  1  0  0  0  0
 14 49  1  0  0  0  0
 14 96  1  0  0  0  0
 14 97  1  0  0  0  0
 15 49  1  0  0  0  0
 15 94  1  0  0  0  0
 15 95  1  0  0  0  0
 16 17  1  0  0  0  0
 16 24  1  1  0  0  0
 16 54  1  0  0  0  0
 17 20  1  0  0  0  0
 17 55  1  0  0  0  0
 17 56  1  0  0  0  0
 18 21  1  0  0  0  0
 18 57  1  0  0  0  0
 18 58  1  0  0  0  0
 19 22  1  0  0  0  0
 19 23  1  0  0  0  0
 19 59  1  0  0  0  0
 20 21  1  0  0  0  0
 20 25  2  0  0  0  0
 21 27  2  0  0  0  0
 23 26  1  0  0  0  0
 23 60  1  0  0  0  0
 23 61  1  0  0  0  0
 25 30  1  0  0  0  0
 25 63  1  0  0  0  0
 26 33  1  0  0  0  0
 26 64  1  0  0  0  0
 26 65  1  0  0  0  0
 27 31  1  0  0  0  0
 27 66  1  0  0  0  0
 28 29  1  0  0  0  0
 28 32  1  0  0  0  0
 28 67  1  0  0  0  0
 30 31  2  0  0  0  0
 30 68  1  0  0  0  0
 31 69  1  0  0  0  0
 32 38  1  0  0  0  0
 32 70  1  0  0  0  0
 32 71  1  0  0  0  0
 33 72  1  0  0  0  0
 33 73  1  0  0  0  0
 34 35  1  0  0  0  0
 34 36  1  0  0  0  0
 34 75  1  0  0  0  0
 35 37  1  0  0  0  0
 35 78  1  0  0  0  0
 35 79  1  0  0  0  0
 37 39  1  0  0  0  0
 37 41  2  0  0  0  0
 38 42  2  0  0  0  0
 38 43  1  0  0  0  0
 39 40  1  0  0  0  0
 39 44  2  0  0  0  0
 40 45  2  0  0  0  0
 41 81  1  0  0  0  0
 42 47  1  0  0  0  0
 42 83  1  0  0  0  0
 43 48  2  0  0  0  0
 43 84  1  0  0  0  0
 44 50  1  0  0  0  0
 44 85  1  0  0  0  0
 45 51  1  0  0  0  0
 45 86  1  0  0  0  0
 46 53  1  0  0  0  0
 47 52  2  0  0  0  0
 47 87  1  0  0  0  0
 48 52  1  0  0  0  0
 48 88  1  0  0  0  0
 50 51  2  0  0  0  0
 50 89  1  0  0  0  0
 51 90  1  0  0  0  0
 53 91  1  0  0  0  0
 53 92  1  0  0  0  0
 53 93  1  0  0  0  0
M  END
> <PUBCHEM_COMPOUND_CID>
118735607

> <PUBCHEM_COMPOUND_CANONICALIZED>
1

> <PUBCHEM_CACTVS_COMPLEXITY>
1320

> <PUBCHEM_CACTVS_HBOND_ACCEPTOR>
6

> <PUBCHEM_CACTVS_HBOND_DONOR>
7

> <PUBCHEM_CACTVS_ROTATABLE_BOND>
15

> <PUBCHEM_CACTVS_SUBSKEYS>
AAADcfB/+AAAAgAAAAAAAAAAAAAAAWAAAAA8YMEAAAAAAFix9AAAHgAwAAAADCjDngQ/wPPJkACoAzV3dACCgCExAiAI2aG4ZJgIYPLAkbGUIAhglgDIyAcYicCOgAAAAAASAAAAAAAAACQAAAAAAAAAAA==

> <PUBCHEM_IUPAC_OPENEYE_NAME>
(3S)-2-[(2S)-2-[[(2R)-2-[[(2S)-2-acetamido-3-(1H-indol-3-yl)propanoyl]amino]-3-(4-iodophenyl)propanoyl]amino]-5-guanidino-pentanoyl]-3,4-dihydro-1H-isoquinoline-3-carboxamide

> <PUBCHEM_IUPAC_CAS_NAME>
(3S)-2-[(2S)-2-[[(2R)-2-[[(2S)-2-acetamido-3-(1H-indol-3-yl)-1-oxopropyl]amino]-3-(4-iodophenyl)-1-oxopropyl]amino]-5-(diaminomethylideneamino)-1-oxopentyl]-3,4-dihydro-1H-isoquinoline-3-carboxamide

> <PUBCHEM_IUPAC_NAME>
(3S)-2-[(2S)-2-[[(2R)-2-[[(2S)-2-acetamido-3-(1H-indol-3-yl)propanoyl]amino]-3-(4-iodophenyl)propanoyl]amino]-5-(diaminomethylideneamino)pentanoyl]-3,4-dihydro-1H-isoquinoline-3-carboxamide

> <PUBCHEM_IUPAC_SYSTEMATIC_NAME>
(3S)-2-[(2S)-2-[[(2R)-2-[[(2S)-2-acetamido-3-(1H-indol-3-yl)propanoyl]amino]-3-(4-iodophenyl)propanoyl]amino]-5-[bis(azanyl)methylideneamino]pentanoyl]-3,4-dihydro-1H-isoquinoline-3-carboxamide

> <PUBCHEM_IUPAC_TRADITIONAL_NAME>
(3S)-2-[(2S)-2-[[(2R)-2-[[(2S)-2-acetamido-3-(1H-indol-3-yl)propanoyl]amino]-3-(4-iodophenyl)propanoyl]amino]-5-guanidino-pentanoyl]-3,4-dihydro-1H-isoquinoline-3-carboxamide

> <PUBCHEM_IUPAC_INCHI>
InChI=1S/C38H44IN9O5/c1-22(49)45-32(18-26-20-44-29-10-5-4-9-28(26)29)36(52)47-31(17-23-12-14-27(39)15-13-23)35(51)46-30(11-6-16-43-38(41)42)37(53)48-21-25-8-3-2-7-24(25)19-33(48)34(40)50/h2-5,7-10,12-15,20,30-33,44H,6,11,16-19,21H2,1H3,(H2,40,50)(H,45,49)(H,46,51)(H,47,52)(H4,41,42,43)/t30-,31+,32-,33-/m0/s1

> <PUBCHEM_IUPAC_INCHIKEY>
ODRDYFFVSXKBHT-YGXYGYJOSA-N

> <PUBCHEM_XLOGP3_AA>
2.2

> <PUBCHEM_EXACT_MASS>
833.251

> <PUBCHEM_MOLECULAR_FORMULA>
C38H44IN9O5

> <PUBCHEM_MOLECULAR_WEIGHT>
833.732

> <PUBCHEM_OPENEYE_CAN_SMILES>
CC(=O)NC(CC1=CNC2=CC=CC=C21)C(=O)NC(CC3=CC=C(C=C3)I)C(=O)NC(CCCN=C(N)N)C(=O)N4CC5=CC=CC=C5CC4C(=O)N

> <PUBCHEM_OPENEYE_ISO_SMILES>
CC(=O)N[C@@H](CC1=CNC2=CC=CC=C21)C(=O)N[C@H](CC3=CC=C(C=C3)I)C(=O)N[C@@H](CCCN=C(N)N)C(=O)N4CC5=CC=CC=C5C[C@H]4C(=O)N

> <PUBCHEM_CACTVS_TPSA>
231

> <PUBCHEM_MONOISOTOPIC_WEIGHT>
833.251

> <PUBCHEM_TOTAL_CHARGE>
0

> <PUBCHEM_HEAVY_ATOM_COUNT>
53

> <PUBCHEM_ATOM_DEF_STEREO_COUNT>
4

> <PUBCHEM_ATOM_UDEF_STEREO_COUNT>
0

> <PUBCHEM_BOND_DEF_STEREO_COUNT>
0

> <PUBCHEM_BOND_UDEF_STEREO_COUNT>
0

> <PUBCHEM_ISOTOPIC_ATOM_COUNT>
0

> <PUBCHEM_COMPONENT_COUNT>
1

> <PUBCHEM_CACTVS_TAUTO_COUNT>
998

> <PUBCHEM_COORDINATE_TYPE>
1
5
255

> <PUBCHEM_BONDANNOTATIONS>
34  11  5
13  40  8
13  41  8
16  24  5
20  21  8
20  25  8
21  27  8
25  30  8
27  31  8
30  31  8
37  39  8
37  41  8
38  42  8
38  43  8
39  40  8
39  44  8
40  45  8
42  47  8
43  48  8
44  50  8
45  51  8
47  52  8
48  52  8
50  51  8
19  8  5
28  9  5

$$$$
