118735606
  -OEChem-03161706382D

 99103  0     1  0  0  0  0  0999 V2000
   12.5833    3.5306    0.0000 I   0  0  0  0  0  0  0  0  0  0  0  0
    2.1953    2.1916    0.0000 S   0  0  0  0  0  0  0  0  0  0  0  0
   10.0050    1.2172    0.0000 O   0  0  0  0  0  0  0  0  0  0  0  0
    6.7588   -0.3520    0.0000 O   0  0  0  0  0  0  0  0  0  0  0  0
   11.6978   -1.9663    0.0000 O   0  0  0  0  0  0  0  0  0  0  0  0
    5.7803   -0.5582    0.0000 O   0  0  0  0  0  0  0  0  0  0  0  0
   12.3657   -2.7106    0.0000 O   0  0  0  0  0  0  0  0  0  0  0  0
    8.7158    0.0604    0.0000 N   0  0  0  0  0  0  0  0  0  0  0  0
   10.0515   -1.4282    0.0000 N   0  0  0  0  0  0  0  0  0  0  0  0
    6.4016    1.3428    0.0000 N   0  0  0  0  0  0  0  0  0  0  0  0
   11.0765   -3.8673    0.0000 N   0  0  0  0  0  0  0  0  0  0  0  0
    9.1195   -5.8892    0.0000 N   0  0  0  0  0  0  0  0  0  0  0  0
    7.3336    4.1944    0.0000 N   0  0  0  0  0  0  0  0  0  0  0  0
    4.3681   -0.4817    0.0000 N   0  0  0  0  0  0  0  0  0  0  0  0
    6.9764    5.8892    0.0000 N   0  0  0  0  0  0  0  0  0  0  0  0
    8.6228    5.3511    0.0000 N   0  0  0  0  0  0  0  0  0  0  0  0
    8.0480    0.8047    0.0000 C   0  0  1  0  0  0  0  0  0  0  0  0
   10.3621   -0.4777    0.0000 C   0  0  2  0  0  0  0  0  0  0  0  0
    8.3586    1.7552    0.0000 C   0  0  0  0  0  0  0  0  0  0  0  0
   10.4087   -3.1230    0.0000 C   0  0  1  0  0  0  0  0  0  0  0  0
    9.4302   -3.3292    0.0000 C   0  0  0  0  0  0  0  0  0  0  0  0
   11.3407   -0.2714    0.0000 C   0  0  0  0  0  0  0  0  0  0  0  0
    9.6943    0.2666    0.0000 C   0  0  0  0  0  0  0  0  0  0  0  0
    7.6908    2.4996    0.0000 C   0  0  0  0  0  0  0  0  0  0  0  0
    5.4231    1.1366    0.0000 C   0  0  1  0  0  0  0  0  0  0  0  0
    7.0694    0.5985    0.0000 C   0  0  0  0  0  0  0  0  0  0  0  0
    9.1195   -4.2797    0.0000 C   0  0  0  0  0  0  0  0  0  0  0  0
   10.7193   -2.1725    0.0000 C   0  0  0  0  0  0  0  0  0  0  0  0
    4.7552    1.8809    0.0000 C   0  0  0  0  0  0  0  0  0  0  0  0
    8.1733   -4.5845    0.0000 C   0  0  0  0  0  0  0  0  0  0  0  0
   11.6513    0.6791    0.0000 C   0  0  0  0  0  0  0  0  0  0  0  0
    3.8048    2.1916    0.0000 C   0  0  0  0  0  0  0  0  0  0  0  0
    8.0014    3.4501    0.0000 C   0  0  0  0  0  0  0  0  0  0  0  0
    8.1733   -5.5845    0.0000 C   0  0  0  0  0  0  0  0  0  0  0  0
    9.7031   -5.0845    0.0000 C   0  0  0  0  0  0  0  0  0  0  0  0
    3.5000    3.1378    0.0000 C   0  0  0  0  0  0  0  0  0  0  0  0
    5.1124    0.1861    0.0000 C   0  0  0  0  0  0  0  0  0  0  0  0
    7.3072   -4.0845    0.0000 C   0  0  0  0  0  0  0  0  0  0  0  0
    3.0000    1.6080    0.0000 C   0  0  0  0  0  0  0  0  0  0  0  0
    2.5000    3.1379    0.0000 C   0  0  0  0  0  0  0  0  0  0  0  0
   10.9835    1.4234    0.0000 C   0  0  0  0  0  0  0  0  0  0  0  0
   12.6298    0.8853    0.0000 C   0  0  0  0  0  0  0  0  0  0  0  0
    7.3072   -6.0845    0.0000 C   0  0  0  0  0  0  0  0  0  0  0  0
   12.0550   -3.6611    0.0000 C   0  0  0  0  0  0  0  0  0  0  0  0
    6.4412   -4.5845    0.0000 C   0  0  0  0  0  0  0  0  0  0  0  0
    4.0000    4.0038    0.0000 C   0  0  0  0  0  0  0  0  0  0  0  0
    6.4412   -5.5845    0.0000 C   0  0  0  0  0  0  0  0  0  0  0  0
   11.2941    2.3739    0.0000 C   0  0  0  0  0  0  0  0  0  0  0  0
   12.9405    1.8358    0.0000 C   0  0  0  0  0  0  0  0  0  0  0  0
    2.0000    4.0038    0.0000 C   0  0  0  0  0  0  0  0  0  0  0  0
   12.2726    2.5801    0.0000 C   0  0  0  0  0  0  0  0  0  0  0  0
    3.5000    4.8698    0.0000 C   0  0  0  0  0  0  0  0  0  0  0  0
   12.7229   -4.4054    0.0000 C   0  0  0  0  0  0  0  0  0  0  0  0
    2.5000    4.8698    0.0000 C   0  0  0  0  0  0  0  0  0  0  0  0
    7.6442    5.1449    0.0000 C   0  0  0  0  0  0  0  0  0  0  0  0
    7.8553    0.2154    0.0000 H   0  0  0  0  0  0  0  0  0  0  0  0
    9.7555   -0.6055    0.0000 H   0  0  0  0  0  0  0  0  0  0  0  0
    8.9055    1.4632    0.0000 H   0  0  0  0  0  0  0  0  0  0  0  0
    8.7412    2.2432    0.0000 H   0  0  0  0  0  0  0  0  0  0  0  0
   10.2161   -3.7123    0.0000 H   0  0  0  0  0  0  0  0  0  0  0  0
    9.4096   -2.7096    0.0000 H   0  0  0  0  0  0  0  0  0  0  0  0
    8.8163   -3.2419    0.0000 H   0  0  0  0  0  0  0  0  0  0  0  0
    8.5232   -0.5289    0.0000 H   0  0  0  0  0  0  0  0  0  0  0  0
   11.3612   -0.8911    0.0000 H   0  0  0  0  0  0  0  0  0  0  0  0
   11.9545   -0.3588    0.0000 H   0  0  0  0  0  0  0  0  0  0  0  0
    7.1438    2.7916    0.0000 H   0  0  0  0  0  0  0  0  0  0  0  0
    7.3082    2.0116    0.0000 H   0  0  0  0  0  0  0  0  0  0  0  0
    5.8372    0.6751    0.0000 H   0  0  0  0  0  0  0  0  0  0  0  0
    9.4448   -1.5560    0.0000 H   0  0  0  0  0  0  0  0  0  0  0  0
    5.3305    2.1121    0.0000 H   0  0  0  0  0  0  0  0  0  0  0  0
    4.4167    1.3615    0.0000 H   0  0  0  0  0  0  0  0  0  0  0  0
    6.5942    1.9321    0.0000 H   0  0  0  0  0  0  0  0  0  0  0  0
    8.5484    3.1581    0.0000 H   0  0  0  0  0  0  0  0  0  0  0  0
    8.3840    3.9380    0.0000 H   0  0  0  0  0  0  0  0  0  0  0  0
   10.8839   -4.4566    0.0000 H   0  0  0  0  0  0  0  0  0  0  0  0
   10.3231   -5.0845    0.0000 H   0  0  0  0  0  0  0  0  0  0  0  0
    9.3121   -6.4785    0.0000 H   0  0  0  0  0  0  0  0  0  0  0  0
    7.3072   -3.4645    0.0000 H   0  0  0  0  0  0  0  0  0  0  0  0
    3.0000    0.9880    0.0000 H   0  0  0  0  0  0  0  0  0  0  0  0
   10.3768    1.2955    0.0000 H   0  0  0  0  0  0  0  0  0  0  0  0
   13.0439    0.4238    0.0000 H   0  0  0  0  0  0  0  0  0  0  0  0
    7.3072   -6.7045    0.0000 H   0  0  0  0  0  0  0  0  0  0  0  0
    5.9043   -4.2745    0.0000 H   0  0  0  0  0  0  0  0  0  0  0  0
    4.6200    4.0038    0.0000 H   0  0  0  0  0  0  0  0  0  0  0  0
    5.9043   -5.8945    0.0000 H   0  0  0  0  0  0  0  0  0  0  0  0
   10.8801    2.8354    0.0000 H   0  0  0  0  0  0  0  0  0  0  0  0
   13.5472    1.9637    0.0000 H   0  0  0  0  0  0  0  0  0  0  0  0
    1.3800    4.0038    0.0000 H   0  0  0  0  0  0  0  0  0  0  0  0
    4.4960   -1.0884    0.0000 H   0  0  0  0  0  0  0  0  0  0  0  0
    3.7788   -0.2892    0.0000 H   0  0  0  0  0  0  0  0  0  0  0  0
    3.8100    5.4068    0.0000 H   0  0  0  0  0  0  0  0  0  0  0  0
   12.2614   -4.8194    0.0000 H   0  0  0  0  0  0  0  0  0  0  0  0
   13.1369   -4.8668    0.0000 H   0  0  0  0  0  0  0  0  0  0  0  0
   13.1843   -3.9913    0.0000 H   0  0  0  0  0  0  0  0  0  0  0  0
    2.1900    5.4068    0.0000 H   0  0  0  0  0  0  0  0  0  0  0  0
    7.1690    6.4785    0.0000 H   0  0  0  0  0  0  0  0  0  0  0  0
    6.3697    5.7613    0.0000 H   0  0  0  0  0  0  0  0  0  0  0  0
    8.8154    5.9404    0.0000 H   0  0  0  0  0  0  0  0  0  0  0  0
    9.0368    4.8896    0.0000 H   0  0  0  0  0  0  0  0  0  0  0  0
  1 51  1  0  0  0  0
  2 39  1  0  0  0  0
  2 40  1  0  0  0  0
  3 23  2  0  0  0  0
  4 26  2  0  0  0  0
  5 28  2  0  0  0  0
  6 37  2  0  0  0  0
  7 44  2  0  0  0  0
 17  8  1  6  0  0  0
  8 23  1  0  0  0  0
  8 63  1  0  0  0  0
 18  9  1  1  0  0  0
  9 28  1  0  0  0  0
  9 69  1  0  0  0  0
 25 10  1  6  0  0  0
 10 26  1  0  0  0  0
 10 72  1  0  0  0  0
 20 11  1  1  0  0  0
 11 44  1  0  0  0  0
 11 75  1  0  0  0  0
 12 34  1  0  0  0  0
 12 35  1  0  0  0  0
 12 77  1  0  0  0  0
 13 33  1  0  0  0  0
 13 55  2  0  0  0  0
 14 37  1  0  0  0  0
 14 89  1  0  0  0  0
 14 90  1  0  0  0  0
 15 55  1  0  0  0  0
 15 96  1  0  0  0  0
 15 97  1  0  0  0  0
 16 55  1  0  0  0  0
 16 98  1  0  0  0  0
 16 99  1  0  0  0  0
 17 19  1  0  0  0  0
 17 26  1  0  0  0  0
 17 56  1  0  0  0  0
 18 22  1  0  0  0  0
 18 23  1  0  0  0  0
 18 57  1  0  0  0  0
 19 24  1  0  0  0  0
 19 58  1  0  0  0  0
 19 59  1  0  0  0  0
 20 21  1  0  0  0  0
 20 28  1  0  0  0  0
 20 60  1  0  0  0  0
 21 27  1  0  0  0  0
 21 61  1  0  0  0  0
 21 62  1  0  0  0  0
 22 31  1  0  0  0  0
 22 64  1  0  0  0  0
 22 65  1  0  0  0  0
 24 33  1  0  0  0  0
 24 66  1  0  0  0  0
 24 67  1  0  0  0  0
 25 29  1  0  0  0  0
 25 37  1  0  0  0  0
 25 68  1  0  0  0  0
 27 30  1  0  0  0  0
 27 35  2  0  0  0  0
 29 32  1  0  0  0  0
 29 70  1  0  0  0  0
 29 71  1  0  0  0  0
 30 34  1  0  0  0  0
 30 38  2  0  0  0  0
 31 41  2  0  0  0  0
 31 42  1  0  0  0  0
 32 36  1  0  0  0  0
 32 39  2  0  0  0  0
 33 73  1  0  0  0  0
 33 74  1  0  0  0  0
 34 43  2  0  0  0  0
 35 76  1  0  0  0  0
 36 40  1  0  0  0  0
 36 46  2  0  0  0  0
 38 45  1  0  0  0  0
 38 78  1  0  0  0  0
 39 79  1  0  0  0  0
 40 50  2  0  0  0  0
 41 48  1  0  0  0  0
 41 80  1  0  0  0  0
 42 49  2  0  0  0  0
 42 81  1  0  0  0  0
 43 47  1  0  0  0  0
 43 82  1  0  0  0  0
 44 53  1  0  0  0  0
 45 47  2  0  0  0  0
 45 83  1  0  0  0  0
 46 52  1  0  0  0  0
 46 84  1  0  0  0  0
 47 85  1  0  0  0  0
 48 51  2  0  0  0  0
 48 86  1  0  0  0  0
 49 51  1  0  0  0  0
 49 87  1  0  0  0  0
 50 54  1  0  0  0  0
 50 88  1  0  0  0  0
 52 54  2  0  0  0  0
 52 91  1  0  0  0  0
 53 92  1  0  0  0  0
 53 93  1  0  0  0  0
 53 94  1  0  0  0  0
 54 95  1  0  0  0  0
M  END
> <PUBCHEM_COMPOUND_CID>
118735606

> <PUBCHEM_COMPOUND_CANONICALIZED>
1

> <PUBCHEM_CACTVS_COMPLEXITY>
1360

> <PUBCHEM_CACTVS_HBOND_ACCEPTOR>
7

> <PUBCHEM_CACTVS_HBOND_DONOR>
8

> <PUBCHEM_CACTVS_ROTATABLE_BOND>
18

> <PUBCHEM_CACTVS_SUBSKEYS>
AAADcfB/+ABAAgAAAAAAAAAAAAAAAWJAAAAwYMAAAAAAAFgB/gAAHgQwAAAADCjH3gS/wfLJkAisAzV3dACDgKExCjBI2bm4ZJgIYPLgkbGUIAhglgDoyAcYicCOgAAAAAAGAAAAAAAAAAwAAAAAAAAAAA==

> <PUBCHEM_IUPAC_OPENEYE_NAME>
(2S)-2-[[(2R)-2-[[(2S)-2-acetamido-3-(1H-indol-3-yl)propanoyl]amino]-3-(4-iodophenyl)propanoyl]amino]-N-[(1S)-2-amino-1-(benzothiophen-3-ylmethyl)-2-oxo-ethyl]-5-guanidino-pentanamide

> <PUBCHEM_IUPAC_CAS_NAME>
(2S)-2-[[(2R)-2-[[(2S)-2-acetamido-3-(1H-indol-3-yl)-1-oxopropyl]amino]-3-(4-iodophenyl)-1-oxopropyl]amino]-N-[(2S)-1-amino-3-(1-benzothiophen-3-yl)-1-oxopropan-2-yl]-5-(diaminomethylideneamino)pentanamide

> <PUBCHEM_IUPAC_NAME>
(2S)-2-[[(2R)-2-[[(2S)-2-acetamido-3-(1H-indol-3-yl)propanoyl]amino]-3-(4-iodophenyl)propanoyl]amino]-N-[(2S)-1-amino-3-(1-benzothiophen-3-yl)-1-oxopropan-2-yl]-5-(diaminomethylideneamino)pentanamide

> <PUBCHEM_IUPAC_SYSTEMATIC_NAME>
(2S)-2-[[(2R)-2-[[(2S)-2-acetamido-3-(1H-indol-3-yl)propanoyl]amino]-3-(4-iodophenyl)propanoyl]amino]-N-[(2S)-1-azanyl-3-(1-benzothiophen-3-yl)-1-oxidanylidene-propan-2-yl]-5-[bis(azanyl)methylideneamino]pentanamide

> <PUBCHEM_IUPAC_TRADITIONAL_NAME>
(2S)-2-[[(2R)-2-[[(2S)-2-acetamido-3-(1H-indol-3-yl)propanoyl]amino]-3-(4-iodophenyl)propanoyl]amino]-N-[(1S)-2-amino-1-(benzothiophen-3-ylmethyl)-2-keto-ethyl]-5-guanidino-valeramide

> <PUBCHEM_IUPAC_INCHI>
InChI=1S/C39H44IN9O5S/c1-22(50)46-33(18-24-20-45-29-9-4-2-7-27(24)29)38(54)49-32(17-23-12-14-26(40)15-13-23)37(53)47-30(10-6-16-44-39(42)43)36(52)48-31(35(41)51)19-25-21-55-34-11-5-3-8-28(25)34/h2-5,7-9,11-15,20-21,30-33,45H,6,10,16-19H2,1H3,(H2,41,51)(H,46,50)(H,47,53)(H,48,52)(H,49,54)(H4,42,43,44)/t30-,31-,32+,33-/m0/s1

> <PUBCHEM_IUPAC_INCHIKEY>
REKSTTUGBVDPCU-SSNHPIBPSA-N

> <PUBCHEM_XLOGP3_AA>
3.5

> <PUBCHEM_EXACT_MASS>
877.223

> <PUBCHEM_MOLECULAR_FORMULA>
C39H44IN9O5S

> <PUBCHEM_MOLECULAR_WEIGHT>
877.803

> <PUBCHEM_OPENEYE_CAN_SMILES>
CC(=O)NC(CC1=CNC2=CC=CC=C21)C(=O)NC(CC3=CC=C(C=C3)I)C(=O)NC(CCCN=C(N)N)C(=O)NC(CC4=CSC5=CC=CC=C54)C(=O)N

> <PUBCHEM_OPENEYE_ISO_SMILES>
CC(=O)N[C@@H](CC1=CNC2=CC=CC=C21)C(=O)N[C@H](CC3=CC=C(C=C3)I)C(=O)N[C@@H](CCCN=C(N)N)C(=O)N[C@@H](CC4=CSC5=CC=CC=C54)C(=O)N

> <PUBCHEM_CACTVS_TPSA>
268

> <PUBCHEM_MONOISOTOPIC_WEIGHT>
877.223

> <PUBCHEM_TOTAL_CHARGE>
0

> <PUBCHEM_HEAVY_ATOM_COUNT>
55

> <PUBCHEM_ATOM_DEF_STEREO_COUNT>
4

> <PUBCHEM_ATOM_UDEF_STEREO_COUNT>
0

> <PUBCHEM_BOND_DEF_STEREO_COUNT>
0

> <PUBCHEM_BOND_UDEF_STEREO_COUNT>
0

> <PUBCHEM_ISOTOPIC_ATOM_COUNT>
0

> <PUBCHEM_COMPONENT_COUNT>
1

> <PUBCHEM_CACTVS_TAUTO_COUNT>
998

> <PUBCHEM_COORDINATE_TYPE>
1
5
255

> <PUBCHEM_BONDANNOTATIONS>
25  10  6
20  11  5
12  34  8
12  35  8
2  39  8
2  40  8
27  30  8
27  35  8
30  34  8
30  38  8
31  41  8
31  42  8
32  36  8
32  39  8
34  43  8
36  40  8
36  46  8
38  45  8
40  50  8
41  48  8
42  49  8
43  47  8
45  47  8
46  52  8
48  51  8
49  51  8
50  54  8
52  54  8
17  8  6
18  9  5

$$$$
