118735605
  -OEChem-03161706382D

106110  0     1  0  0  0  0  0999 V2000
   15.3419    3.5306    0.0000 I   0  0  0  0  0  0  0  0  0  0  0  0
   12.7636    1.2172    0.0000 O   0  0  0  0  0  0  0  0  0  0  0  0
   14.4564   -1.9663    0.0000 O   0  0  0  0  0  0  0  0  0  0  0  0
    9.5174   -0.3520    0.0000 O   0  0  0  0  0  0  0  0  0  0  0  0
    6.5354    1.6747    0.0000 O   0  0  0  0  0  0  0  0  0  0  0  0
   15.1243   -2.7106    0.0000 O   0  0  0  0  0  0  0  0  0  0  0  0
   11.4744    0.0604    0.0000 N   0  0  0  0  0  0  0  0  0  0  0  0
   12.8101   -1.4282    0.0000 N   0  0  0  0  0  0  0  0  0  0  0  0
    9.1602    1.3428    0.0000 N   0  0  0  0  0  0  0  0  0  0  0  0
   13.8351   -3.8673    0.0000 N   0  0  0  0  0  0  0  0  0  0  0  0
   11.8781   -5.8892    0.0000 N   0  0  0  0  0  0  0  0  0  0  0  0
   10.0922    4.1944    0.0000 N   0  0  0  0  0  0  0  0  0  0  0  0
    7.8245    2.8314    0.0000 N   0  0  0  0  0  0  0  0  0  0  0  0
    9.7350    5.8892    0.0000 N   0  0  0  0  0  0  0  0  0  0  0  0
   11.3814    5.3511    0.0000 N   0  0  0  0  0  0  0  0  0  0  0  0
   10.8066    0.8047    0.0000 C   0  0  1  0  0  0  0  0  0  0  0  0
   13.1207   -0.4777    0.0000 C   0  0  2  0  0  0  0  0  0  0  0  0
   11.1172    1.7552    0.0000 C   0  0  0  0  0  0  0  0  0  0  0  0
   13.1673   -3.1230    0.0000 C   0  0  1  0  0  0  0  0  0  0  0  0
   12.1888   -3.3292    0.0000 C   0  0  0  0  0  0  0  0  0  0  0  0
   14.0993   -0.2714    0.0000 C   0  0  0  0  0  0  0  0  0  0  0  0
   12.4529    0.2666    0.0000 C   0  0  0  0  0  0  0  0  0  0  0  0
   10.4494    2.4996    0.0000 C   0  0  0  0  0  0  0  0  0  0  0  0
   11.8781   -4.2797    0.0000 C   0  0  0  0  0  0  0  0  0  0  0  0
   13.4779   -2.1725    0.0000 C   0  0  0  0  0  0  0  0  0  0  0  0
    9.8280    0.5985    0.0000 C   0  0  0  0  0  0  0  0  0  0  0  0
    8.1817    1.1366    0.0000 C   0  0  1  0  0  0  0  0  0  0  0  0
   10.9319   -4.5845    0.0000 C   0  0  0  0  0  0  0  0  0  0  0  0
   14.4099    0.6791    0.0000 C   0  0  0  0  0  0  0  0  0  0  0  0
    7.8710    0.1861    0.0000 C   0  0  0  0  0  0  0  0  0  0  0  0
   10.9319   -5.5845    0.0000 C   0  0  0  0  0  0  0  0  0  0  0  0
   12.4617   -5.0845    0.0000 C   0  0  0  0  0  0  0  0  0  0  0  0
   10.7600    3.4501    0.0000 C   0  0  0  0  0  0  0  0  0  0  0  0
    6.8925   -0.0201    0.0000 C   0  0  0  0  0  0  0  0  0  0  0  0
   10.0659   -4.0845    0.0000 C   0  0  0  0  0  0  0  0  0  0  0  0
    7.5138    1.8809    0.0000 C   0  0  0  0  0  0  0  0  0  0  0  0
   10.0659   -6.0845    0.0000 C   0  0  0  0  0  0  0  0  0  0  0  0
   13.7421    1.4234    0.0000 C   0  0  0  0  0  0  0  0  0  0  0  0
   15.3884    0.8853    0.0000 C   0  0  0  0  0  0  0  0  0  0  0  0
   14.8136   -3.6611    0.0000 C   0  0  0  0  0  0  0  0  0  0  0  0
    9.1998   -4.5845    0.0000 C   0  0  0  0  0  0  0  0  0  0  0  0
    9.1998   -5.5845    0.0000 C   0  0  0  0  0  0  0  0  0  0  0  0
    6.5819   -0.9707    0.0000 C   0  0  0  0  0  0  0  0  0  0  0  0
    6.2247    0.7242    0.0000 C   0  0  0  0  0  0  0  0  0  0  0  0
   14.0527    2.3739    0.0000 C   0  0  0  0  0  0  0  0  0  0  0  0
   15.6991    1.8358    0.0000 C   0  0  0  0  0  0  0  0  0  0  0  0
    4.9355   -0.4326    0.0000 C   0  0  0  0  0  0  0  0  0  0  0  0
   15.0312    2.5801    0.0000 C   0  0  0  0  0  0  0  0  0  0  0  0
    5.6034   -1.1769    0.0000 C   0  0  0  0  0  0  0  0  0  0  0  0
    5.2462    0.5179    0.0000 C   0  0  0  0  0  0  0  0  0  0  0  0
   15.4815   -4.4054    0.0000 C   0  0  0  0  0  0  0  0  0  0  0  0
   10.4029    5.1449    0.0000 C   0  0  0  0  0  0  0  0  0  0  0  0
    3.9570   -0.6388    0.0000 C   0  0  0  0  0  0  0  0  0  0  0  0
    3.6464   -1.5893    0.0000 C   0  0  0  0  0  0  0  0  0  0  0  0
    3.2892    0.1055    0.0000 C   0  0  0  0  0  0  0  0  0  0  0  0
    2.6678   -1.7955    0.0000 C   0  0  0  0  0  0  0  0  0  0  0  0
    2.3107   -0.1007    0.0000 C   0  0  0  0  0  0  0  0  0  0  0  0
    2.0000   -1.0512    0.0000 C   0  0  0  0  0  0  0  0  0  0  0  0
   10.6139    0.2154    0.0000 H   0  0  0  0  0  0  0  0  0  0  0  0
   13.5348   -0.9391    0.0000 H   0  0  0  0  0  0  0  0  0  0  0  0
   11.6641    1.4632    0.0000 H   0  0  0  0  0  0  0  0  0  0  0  0
   11.4998    2.2432    0.0000 H   0  0  0  0  0  0  0  0  0  0  0  0
   13.7739   -2.9951    0.0000 H   0  0  0  0  0  0  0  0  0  0  0  0
   12.1682   -2.7096    0.0000 H   0  0  0  0  0  0  0  0  0  0  0  0
   11.5749   -3.2419    0.0000 H   0  0  0  0  0  0  0  0  0  0  0  0
   14.1198   -0.8911    0.0000 H   0  0  0  0  0  0  0  0  0  0  0  0
   14.7131   -0.3588    0.0000 H   0  0  0  0  0  0  0  0  0  0  0  0
   11.2818   -0.5289    0.0000 H   0  0  0  0  0  0  0  0  0  0  0  0
   12.2034   -1.5560    0.0000 H   0  0  0  0  0  0  0  0  0  0  0  0
    9.9024    2.7916    0.0000 H   0  0  0  0  0  0  0  0  0  0  0  0
   10.0668    2.0116    0.0000 H   0  0  0  0  0  0  0  0  0  0  0  0
    8.3743    1.7259    0.0000 H   0  0  0  0  0  0  0  0  0  0  0  0
    9.3528    1.9321    0.0000 H   0  0  0  0  0  0  0  0  0  0  0  0
    7.8916   -0.4336    0.0000 H   0  0  0  0  0  0  0  0  0  0  0  0
    8.4848    0.0987    0.0000 H   0  0  0  0  0  0  0  0  0  0  0  0
   13.6425   -4.4566    0.0000 H   0  0  0  0  0  0  0  0  0  0  0  0
   13.0817   -5.0845    0.0000 H   0  0  0  0  0  0  0  0  0  0  0  0
   11.3070    3.1581    0.0000 H   0  0  0  0  0  0  0  0  0  0  0  0
   11.1426    3.9380    0.0000 H   0  0  0  0  0  0  0  0  0  0  0  0
   12.0707   -6.4785    0.0000 H   0  0  0  0  0  0  0  0  0  0  0  0
   10.0659   -3.4645    0.0000 H   0  0  0  0  0  0  0  0  0  0  0  0
   10.0659   -6.7045    0.0000 H   0  0  0  0  0  0  0  0  0  0  0  0
   13.1354    1.2955    0.0000 H   0  0  0  0  0  0  0  0  0  0  0  0
   15.8025    0.4238    0.0000 H   0  0  0  0  0  0  0  0  0  0  0  0
    8.6629   -4.2745    0.0000 H   0  0  0  0  0  0  0  0  0  0  0  0
    8.6629   -5.8945    0.0000 H   0  0  0  0  0  0  0  0  0  0  0  0
    6.9959   -1.4321    0.0000 H   0  0  0  0  0  0  0  0  0  0  0  0
    6.4173    1.3135    0.0000 H   0  0  0  0  0  0  0  0  0  0  0  0
   13.6387    2.8354    0.0000 H   0  0  0  0  0  0  0  0  0  0  0  0
   16.3058    1.9637    0.0000 H   0  0  0  0  0  0  0  0  0  0  0  0
    5.4108   -1.7662    0.0000 H   0  0  0  0  0  0  0  0  0  0  0  0
    4.8321    0.9794    0.0000 H   0  0  0  0  0  0  0  0  0  0  0  0
   15.0200   -4.8194    0.0000 H   0  0  0  0  0  0  0  0  0  0  0  0
   15.8955   -4.8668    0.0000 H   0  0  0  0  0  0  0  0  0  0  0  0
   15.9429   -3.9913    0.0000 H   0  0  0  0  0  0  0  0  0  0  0  0
    7.4104    3.2929    0.0000 H   0  0  0  0  0  0  0  0  0  0  0  0
    8.4312    2.9593    0.0000 H   0  0  0  0  0  0  0  0  0  0  0  0
    4.0604   -2.0508    0.0000 H   0  0  0  0  0  0  0  0  0  0  0  0
    3.4818    0.6948    0.0000 H   0  0  0  0  0  0  0  0  0  0  0  0
   11.5740    5.9404    0.0000 H   0  0  0  0  0  0  0  0  0  0  0  0
   11.7954    4.8896    0.0000 H   0  0  0  0  0  0  0  0  0  0  0  0
    9.9276    6.4785    0.0000 H   0  0  0  0  0  0  0  0  0  0  0  0
    9.1283    5.7613    0.0000 H   0  0  0  0  0  0  0  0  0  0  0  0
    2.4752   -2.3849    0.0000 H   0  0  0  0  0  0  0  0  0  0  0  0
    1.8966    0.3608    0.0000 H   0  0  0  0  0  0  0  0  0  0  0  0
    1.3933   -1.1791    0.0000 H   0  0  0  0  0  0  0  0  0  0  0  0
  1 48  1  0  0  0  0
  2 22  2  0  0  0  0
  3 25  2  0  0  0  0
  4 26  2  0  0  0  0
  5 36  2  0  0  0  0
  6 40  2  0  0  0  0
 16  7  1  6  0  0  0
  7 22  1  0  0  0  0
  7 68  1  0  0  0  0
 17  8  1  1  0  0  0
  8 25  1  0  0  0  0
  8 69  1  0  0  0  0
  9 26  1  0  0  0  0
 27  9  1  1  0  0  0
  9 73  1  0  0  0  0
 19 10  1  1  0  0  0
 10 40  1  0  0  0  0
 10 76  1  0  0  0  0
 11 31  1  0  0  0  0
 11 32  1  0  0  0  0
 11 80  1  0  0  0  0
 12 33  1  0  0  0  0
 12 52  2  0  0  0  0
 13 36  1  0  0  0  0
 13 96  1  0  0  0  0
 13 97  1  0  0  0  0
 14 52  1  0  0  0  0
 14102  1  0  0  0  0
 14103  1  0  0  0  0
 15 52  1  0  0  0  0
 15100  1  0  0  0  0
 15101  1  0  0  0  0
 16 18  1  0  0  0  0
 16 26  1  0  0  0  0
 16 59  1  0  0  0  0
 17 21  1  0  0  0  0
 17 22  1  0  0  0  0
 17 60  1  0  0  0  0
 18 23  1  0  0  0  0
 18 61  1  0  0  0  0
 18 62  1  0  0  0  0
 19 20  1  0  0  0  0
 19 25  1  0  0  0  0
 19 63  1  0  0  0  0
 20 24  1  0  0  0  0
 20 64  1  0  0  0  0
 20 65  1  0  0  0  0
 21 29  1  0  0  0  0
 21 66  1  0  0  0  0
 21 67  1  0  0  0  0
 23 33  1  0  0  0  0
 23 70  1  0  0  0  0
 23 71  1  0  0  0  0
 24 28  1  0  0  0  0
 24 32  2  0  0  0  0
 27 30  1  0  0  0  0
 27 36  1  0  0  0  0
 27 72  1  0  0  0  0
 28 31  1  0  0  0  0
 28 35  2  0  0  0  0
 29 38  2  0  0  0  0
 29 39  1  0  0  0  0
 30 34  1  0  0  0  0
 30 74  1  0  0  0  0
 30 75  1  0  0  0  0
 31 37  2  0  0  0  0
 32 77  1  0  0  0  0
 33 78  1  0  0  0  0
 33 79  1  0  0  0  0
 34 43  2  0  0  0  0
 34 44  1  0  0  0  0
 35 41  1  0  0  0  0
 35 81  1  0  0  0  0
 37 42  1  0  0  0  0
 37 82  1  0  0  0  0
 38 45  1  0  0  0  0
 38 83  1  0  0  0  0
 39 46  2  0  0  0  0
 39 84  1  0  0  0  0
 40 51  1  0  0  0  0
 41 42  2  0  0  0  0
 41 85  1  0  0  0  0
 42 86  1  0  0  0  0
 43 49  1  0  0  0  0
 43 87  1  0  0  0  0
 44 50  2  0  0  0  0
 44 88  1  0  0  0  0
 45 48  2  0  0  0  0
 45 89  1  0  0  0  0
 46 48  1  0  0  0  0
 46 90  1  0  0  0  0
 47 49  2  0  0  0  0
 47 50  1  0  0  0  0
 47 53  1  0  0  0  0
 49 91  1  0  0  0  0
 50 92  1  0  0  0  0
 51 93  1  0  0  0  0
 51 94  1  0  0  0  0
 51 95  1  0  0  0  0
 53 54  2  0  0  0  0
 53 55  1  0  0  0  0
 54 56  1  0  0  0  0
 54 98  1  0  0  0  0
 55 57  2  0  0  0  0
 55 99  1  0  0  0  0
 56 58  2  0  0  0  0
 56104  1  0  0  0  0
 57 58  1  0  0  0  0
 57105  1  0  0  0  0
 58106  1  0  0  0  0
M  END
> <PUBCHEM_COMPOUND_CID>
118735605

> <PUBCHEM_COMPOUND_CANONICALIZED>
1

> <PUBCHEM_CACTVS_COMPLEXITY>
1390

> <PUBCHEM_CACTVS_HBOND_ACCEPTOR>
6

> <PUBCHEM_CACTVS_HBOND_DONOR>
8

> <PUBCHEM_CACTVS_ROTATABLE_BOND>
19

> <PUBCHEM_CACTVS_SUBSKEYS>
AAADcfB/+AAAAgAAAAAAAAAAAAAAAWAAAAAwYMGAAAAAAFgB9AAAHgAwAAAADCjDngQ/wPLJkACoAzV3dACCgCExAiAI2aG4ZJgIYPLAkbGUIAhglgDIyAcYicCOwAAAAAACAACAAAAAAAQAAAAAAAAAAA==

> <PUBCHEM_IUPAC_OPENEYE_NAME>
(2S)-2-[[(2R)-2-[[(2S)-2-acetamido-3-(1H-indol-3-yl)propanoyl]amino]-3-(4-iodophenyl)propanoyl]amino]-N-[(1S)-2-amino-2-oxo-1-[(4-phenylphenyl)methyl]ethyl]-5-guanidino-pentanamide

> <PUBCHEM_IUPAC_CAS_NAME>
(2S)-2-[[(2R)-2-[[(2S)-2-acetamido-3-(1H-indol-3-yl)-1-oxopropyl]amino]-3-(4-iodophenyl)-1-oxopropyl]amino]-N-[(2S)-1-amino-1-oxo-3-(4-phenylphenyl)propan-2-yl]-5-(diaminomethylideneamino)pentanamide

> <PUBCHEM_IUPAC_NAME>
(2S)-2-[[(2R)-2-[[(2S)-2-acetamido-3-(1H-indol-3-yl)propanoyl]amino]-3-(4-iodophenyl)propanoyl]amino]-N-[(2S)-1-amino-1-oxo-3-(4-phenylphenyl)propan-2-yl]-5-(diaminomethylideneamino)pentanamide

> <PUBCHEM_IUPAC_SYSTEMATIC_NAME>
(2S)-2-[[(2R)-2-[[(2S)-2-acetamido-3-(1H-indol-3-yl)propanoyl]amino]-3-(4-iodophenyl)propanoyl]amino]-N-[(2S)-1-azanyl-1-oxidanylidene-3-(4-phenylphenyl)propan-2-yl]-5-[bis(azanyl)methylideneamino]pentanamide

> <PUBCHEM_IUPAC_TRADITIONAL_NAME>
(2S)-2-[[(2R)-2-[[(2S)-2-acetamido-3-(1H-indol-3-yl)propanoyl]amino]-3-(4-iodophenyl)propanoyl]amino]-N-[(1S)-2-amino-2-keto-1-(4-phenylbenzyl)ethyl]-5-guanidino-valeramide

> <PUBCHEM_IUPAC_INCHI>
InChI=1S/C43H48IN9O5/c1-26(54)50-38(24-31-25-49-34-11-6-5-10-33(31)34)42(58)53-37(23-28-15-19-32(44)20-16-28)41(57)51-35(12-7-21-48-43(46)47)40(56)52-36(39(45)55)22-27-13-17-30(18-14-27)29-8-3-2-4-9-29/h2-6,8-11,13-20,25,35-38,49H,7,12,21-24H2,1H3,(H2,45,55)(H,50,54)(H,51,57)(H,52,56)(H,53,58)(H4,46,47,48)/t35-,36-,37+,38-/m0/s1

> <PUBCHEM_IUPAC_INCHIKEY>
NXFNNHLGYYKVIN-DYLMPHRMSA-N

> <PUBCHEM_XLOGP3>
3.8

> <PUBCHEM_EXACT_MASS>
897.282

> <PUBCHEM_MOLECULAR_FORMULA>
C43H48IN9O5

> <PUBCHEM_MOLECULAR_WEIGHT>
897.819

> <PUBCHEM_OPENEYE_CAN_SMILES>
CC(=O)NC(CC1=CNC2=CC=CC=C21)C(=O)NC(CC3=CC=C(C=C3)I)C(=O)NC(CCCN=C(N)N)C(=O)NC(CC4=CC=C(C=C4)C5=CC=CC=C5)C(=O)N

> <PUBCHEM_OPENEYE_ISO_SMILES>
CC(=O)N[C@@H](CC1=CNC2=CC=CC=C21)C(=O)N[C@H](CC3=CC=C(C=C3)I)C(=O)N[C@@H](CCCN=C(N)N)C(=O)N[C@@H](CC4=CC=C(C=C4)C5=CC=CC=C5)C(=O)N

> <PUBCHEM_CACTVS_TPSA>
240

> <PUBCHEM_MONOISOTOPIC_WEIGHT>
897.282

> <PUBCHEM_TOTAL_CHARGE>
0

> <PUBCHEM_HEAVY_ATOM_COUNT>
58

> <PUBCHEM_ATOM_DEF_STEREO_COUNT>
4

> <PUBCHEM_ATOM_UDEF_STEREO_COUNT>
0

> <PUBCHEM_BOND_DEF_STEREO_COUNT>
0

> <PUBCHEM_BOND_UDEF_STEREO_COUNT>
0

> <PUBCHEM_ISOTOPIC_ATOM_COUNT>
0

> <PUBCHEM_COMPONENT_COUNT>
1

> <PUBCHEM_CACTVS_TAUTO_COUNT>
1000

> <PUBCHEM_COORDINATE_TYPE>
1
5
255

> <PUBCHEM_BONDANNOTATIONS>
19  10  5
11  31  8
11  32  8
24  28  8
24  32  8
28  31  8
28  35  8
29  38  8
29  39  8
31  37  8
34  43  8
34  44  8
35  41  8
37  42  8
38  45  8
39  46  8
41  42  8
43  49  8
44  50  8
45  48  8
46  48  8
47  49  8
47  50  8
53  54  8
53  55  8
54  56  8
55  57  8
56  58  8
57  58  8
16  7  6
17  8  5
27  9  5

$$$$
