118735103
  -OEChem-03161706382D

 93 97  0     1  0  0  0  0  0999 V2000
    4.3995   -3.0063    0.0000 O   0  0  0  0  0  0  0  0  0  0  0  0
    4.9687    0.3864    0.0000 O   0  0  0  0  0  0  0  0  0  0  0  0
    8.5570    0.0338    0.0000 O   0  0  0  0  0  0  0  0  0  0  0  0
    6.5503   -5.7798    0.0000 O   0  0  0  0  0  0  0  0  0  0  0  0
    9.5465    0.1779    0.0000 O   0  0  0  0  0  0  0  0  0  0  0  0
    5.8379   -2.1125    0.0000 N   0  0  0  0  0  0  0  0  0  0  0  0
    7.5876   -3.5222    0.0000 N   0  0  0  0  0  0  0  0  0  0  0  0
    6.5778   -0.2544    0.0000 N   0  0  0  0  0  0  0  0  0  0  0  0
    5.2015   -4.6931    0.0000 N   0  0  0  0  0  0  0  0  0  0  0  0
    8.5323   -3.8316    0.0000 N   0  0  0  0  0  0  0  0  0  0  0  0
    8.3074    1.7478    0.0000 N   0  0  0  0  0  0  0  0  0  0  0  0
    9.1199   -3.0298    0.0000 N   0  0  0  0  0  0  0  0  0  0  0  0
   11.9624    3.9959    0.0000 N   0  0  0  0  0  0  0  0  0  0  0  0
    6.4486    4.1026    0.0000 N   0  0  0  0  0  0  0  0  0  0  0  0
   10.8455    0.7370    0.0000 N   0  0  0  0  0  0  0  0  0  0  0  0
    6.1990    5.8166    0.0000 N   0  0  0  0  0  0  0  0  0  0  0  0
    4.8394    4.7434    0.0000 N   0  0  0  0  0  0  0  0  0  0  0  0
    5.2183   -1.3276    0.0000 C   0  0  2  0  0  0  0  0  0  0  0  0
    5.8289   -3.9144    0.0000 C   0  0  2  0  0  0  0  0  0  0  0  0
    6.8139   -1.8948    0.0000 C   0  0  0  0  0  0  0  0  0  0  0  0
    5.3995   -3.0113    0.0000 C   0  0  0  0  0  0  0  0  0  0  0  0
    6.8027   -4.1418    0.0000 C   0  0  0  0  0  0  0  0  0  0  0  0
    4.2287   -1.4717    0.0000 C   0  0  0  0  0  0  0  0  0  0  0  0
    7.5926   -2.5222    0.0000 C   0  0  0  0  0  0  0  0  0  0  0  0
    5.5883   -0.3985    0.0000 C   0  0  0  0  0  0  0  0  0  0  0  0
    6.9478    0.6746    0.0000 C   0  0  1  0  0  0  0  0  0  0  0  0
    6.3282    1.4596    0.0000 C   0  0  0  0  0  0  0  0  0  0  0  0
    3.6092   -0.6867    0.0000 C   0  0  0  0  0  0  0  0  0  0  0  0
    8.5403   -2.2222    0.0000 C   0  0  0  0  0  0  0  0  0  0  0  0
    7.9374    0.8187    0.0000 C   0  0  0  0  0  0  0  0  0  0  0  0
    6.6982    2.3886    0.0000 C   0  0  0  0  0  0  0  0  0  0  0  0
    9.2969    1.8919    0.0000 C   0  0  1  0  0  0  0  0  0  0  0  0
    9.6669    2.8209    0.0000 C   0  0  0  0  0  0  0  0  0  0  0  0
    3.9791    0.2423    0.0000 C   0  0  0  0  0  0  0  0  0  0  0  0
    2.6196   -0.8308    0.0000 C   0  0  0  0  0  0  0  0  0  0  0  0
   10.4518    3.4405    0.0000 C   0  0  0  0  0  0  0  0  0  0  0  0
    5.5622   -5.6258    0.0000 C   0  0  0  0  0  0  0  0  0  0  0  0
    6.0786    3.1735    0.0000 C   0  0  0  0  0  0  0  0  0  0  0  0
   10.4113    4.4338    0.0000 C   0  0  0  0  0  0  0  0  0  0  0  0
    9.9165    1.1070    0.0000 C   0  0  0  0  0  0  0  0  0  0  0  0
   11.3499    4.7788    0.0000 C   0  0  0  0  0  0  0  0  0  0  0  0
    3.3595    1.0272    0.0000 C   0  0  0  0  0  0  0  0  0  0  0  0
    2.0000   -0.0459    0.0000 C   0  0  0  0  0  0  0  0  0  0  0  0
   11.4085    3.1705    0.0000 C   0  0  0  0  0  0  0  0  0  0  0  0
    4.9348   -6.4045    0.0000 C   0  0  0  0  0  0  0  0  0  0  0  0
    2.3700    0.8831    0.0000 C   0  0  0  0  0  0  0  0  0  0  0  0
    9.6432    5.0741    0.0000 C   0  0  0  0  0  0  0  0  0  0  0  0
   11.5203    5.7642    0.0000 C   0  0  0  0  0  0  0  0  0  0  0  0
    9.8136    6.0594    0.0000 C   0  0  0  0  0  0  0  0  0  0  0  0
   10.7522    6.4045    0.0000 C   0  0  0  0  0  0  0  0  0  0  0  0
    5.8290    4.8875    0.0000 C   0  0  0  0  0  0  0  0  0  0  0  0
    5.8318   -1.2382    0.0000 H   0  0  0  0  0  0  0  0  0  0  0  0
    6.0307   -4.5006    0.0000 H   0  0  0  0  0  0  0  0  0  0  0  0
    7.3006   -1.5107    0.0000 H   0  0  0  0  0  0  0  0  0  0  0  0
    6.5477   -1.3349    0.0000 H   0  0  0  0  0  0  0  0  0  0  0  0
    6.5309   -4.6990    0.0000 H   0  0  0  0  0  0  0  0  0  0  0  0
    7.2855   -4.5308    0.0000 H   0  0  0  0  0  0  0  0  0  0  0  0
    3.6828   -1.7655    0.0000 H   0  0  0  0  0  0  0  0  0  0  0  0
    4.4233   -2.0604    0.0000 H   0  0  0  0  0  0  0  0  0  0  0  0
    6.3343    0.5853    0.0000 H   0  0  0  0  0  0  0  0  0  0  0  0
    6.9620   -0.7411    0.0000 H   0  0  0  0  0  0  0  0  0  0  0  0
    5.8008    1.7855    0.0000 H   0  0  0  0  0  0  0  0  0  0  0  0
    5.9157    0.9968    0.0000 H   0  0  0  0  0  0  0  0  0  0  0  0
    4.5889   -4.5976    0.0000 H   0  0  0  0  0  0  0  0  0  0  0  0
    8.7359   -1.6338    0.0000 H   0  0  0  0  0  0  0  0  0  0  0  0
    7.2256    2.0627    0.0000 H   0  0  0  0  0  0  0  0  0  0  0  0
    7.1108    2.8514    0.0000 H   0  0  0  0  0  0  0  0  0  0  0  0
    9.0675    1.3159    0.0000 H   0  0  0  0  0  0  0  0  0  0  0  0
    7.9232    2.2344    0.0000 H   0  0  0  0  0  0  0  0  0  0  0  0
    9.4724    3.4096    0.0000 H   0  0  0  0  0  0  0  0  0  0  0  0
   10.1639    2.4503    0.0000 H   0  0  0  0  0  0  0  0  0  0  0  0
    4.5926    0.3317    0.0000 H   0  0  0  0  0  0  0  0  0  0  0  0
    2.3902   -1.4068    0.0000 H   0  0  0  0  0  0  0  0  0  0  0  0
    5.5512    3.4995    0.0000 H   0  0  0  0  0  0  0  0  0  0  0  0
    5.6661    2.7107    0.0000 H   0  0  0  0  0  0  0  0  0  0  0  0
   11.6225    2.5885    0.0000 H   0  0  0  0  0  0  0  0  0  0  0  0
    3.5889    1.6032    0.0000 H   0  0  0  0  0  0  0  0  0  0  0  0
    1.3865   -0.1353    0.0000 H   0  0  0  0  0  0  0  0  0  0  0  0
    4.4520   -6.0155    0.0000 H   0  0  0  0  0  0  0  0  0  0  0  0
    4.5458   -6.8873    0.0000 H   0  0  0  0  0  0  0  0  0  0  0  0
    5.4176   -6.7935    0.0000 H   0  0  0  0  0  0  0  0  0  0  0  0
   12.5820    4.0185    0.0000 H   0  0  0  0  0  0  0  0  0  0  0  0
    1.9858    1.3698    0.0000 H   0  0  0  0  0  0  0  0  0  0  0  0
    9.0613    4.8601    0.0000 H   0  0  0  0  0  0  0  0  0  0  0  0
   12.1022    5.9782    0.0000 H   0  0  0  0  0  0  0  0  0  0  0  0
   10.9349    0.1235    0.0000 H   0  0  0  0  0  0  0  0  0  0  0  0
   11.3322    1.1211    0.0000 H   0  0  0  0  0  0  0  0  0  0  0  0
    9.3374    6.4564    0.0000 H   0  0  0  0  0  0  0  0  0  0  0  0
   10.8579    7.0154    0.0000 H   0  0  0  0  0  0  0  0  0  0  0  0
    4.4553    5.2301    0.0000 H   0  0  0  0  0  0  0  0  0  0  0  0
    4.6101    4.1674    0.0000 H   0  0  0  0  0  0  0  0  0  0  0  0
    5.8148    6.3032    0.0000 H   0  0  0  0  0  0  0  0  0  0  0  0
    6.8125    5.9059    0.0000 H   0  0  0  0  0  0  0  0  0  0  0  0
  1 21  2  0  0  0  0
  2 25  2  0  0  0  0
  3 30  2  0  0  0  0
  4 37  2  0  0  0  0
  5 40  2  0  0  0  0
  6 18  1  0  0  0  0
  6 20  1  0  0  0  0
  6 21  1  0  0  0  0
  7 10  1  0  0  0  0
  7 22  1  0  0  0  0
  7 24  1  0  0  0  0
  8 25  1  0  0  0  0
 26  8  1  1  0  0  0
  8 61  1  0  0  0  0
 19  9  1  6  0  0  0
  9 37  1  0  0  0  0
  9 64  1  0  0  0  0
 10 12  2  0  0  0  0
 11 30  1  0  0  0  0
 32 11  1  1  0  0  0
 11 69  1  0  0  0  0
 12 29  1  0  0  0  0
 13 41  1  0  0  0  0
 13 44  1  0  0  0  0
 13 82  1  0  0  0  0
 14 38  1  0  0  0  0
 14 51  2  0  0  0  0
 15 40  1  0  0  0  0
 15 86  1  0  0  0  0
 15 87  1  0  0  0  0
 16 51  1  0  0  0  0
 16 92  1  0  0  0  0
 16 93  1  0  0  0  0
 17 51  1  0  0  0  0
 17 90  1  0  0  0  0
 17 91  1  0  0  0  0
 18 23  1  0  0  0  0
 18 25  1  6  0  0  0
 18 52  1  0  0  0  0
 19 21  1  0  0  0  0
 19 22  1  0  0  0  0
 19 53  1  0  0  0  0
 20 24  1  0  0  0  0
 20 54  1  0  0  0  0
 20 55  1  0  0  0  0
 22 56  1  0  0  0  0
 22 57  1  0  0  0  0
 23 28  1  0  0  0  0
 23 58  1  0  0  0  0
 23 59  1  0  0  0  0
 24 29  2  0  0  0  0
 26 27  1  0  0  0  0
 26 30  1  0  0  0  0
 26 60  1  0  0  0  0
 27 31  1  0  0  0  0
 27 62  1  0  0  0  0
 27 63  1  0  0  0  0
 28 34  2  0  0  0  0
 28 35  1  0  0  0  0
 29 65  1  0  0  0  0
 31 38  1  0  0  0  0
 31 66  1  0  0  0  0
 31 67  1  0  0  0  0
 32 33  1  0  0  0  0
 32 40  1  0  0  0  0
 32 68  1  0  0  0  0
 33 36  1  0  0  0  0
 33 70  1  0  0  0  0
 33 71  1  0  0  0  0
 34 42  1  0  0  0  0
 34 72  1  0  0  0  0
 35 43  2  0  0  0  0
 35 73  1  0  0  0  0
 36 39  1  0  0  0  0
 36 44  2  0  0  0  0
 37 45  1  0  0  0  0
 38 74  1  0  0  0  0
 38 75  1  0  0  0  0
 39 41  1  0  0  0  0
 39 47  2  0  0  0  0
 41 48  2  0  0  0  0
 42 46  2  0  0  0  0
 42 77  1  0  0  0  0
 43 46  1  0  0  0  0
 43 78  1  0  0  0  0
 44 76  1  0  0  0  0
 45 79  1  0  0  0  0
 45 80  1  0  0  0  0
 45 81  1  0  0  0  0
 46 83  1  0  0  0  0
 47 49  1  0  0  0  0
 47 84  1  0  0  0  0
 48 50  1  0  0  0  0
 48 85  1  0  0  0  0
 49 50  2  0  0  0  0
 49 88  1  0  0  0  0
 50 89  1  0  0  0  0
M  END
> <PUBCHEM_COMPOUND_CID>
118735103

> <PUBCHEM_COMPOUND_CANONICALIZED>
1

> <PUBCHEM_CACTVS_COMPLEXITY>
1270

> <PUBCHEM_CACTVS_HBOND_ACCEPTOR>
8

> <PUBCHEM_CACTVS_HBOND_DONOR>
7

> <PUBCHEM_CACTVS_ROTATABLE_BOND>
15

> <PUBCHEM_CACTVS_SUBSKEYS>
AAADcfB/+AAAAAAAAAAAAAAAAAAAAWLAAAAwYAAABYAAAFix/AAAHgAYAAAADCjBngQ/wPPJkACqAzV3dACChCUxkiAY2aG4dJgIYPrA0bGUIAhglgDIyAcYicCOgAAAAAACAAAAAAAAAAQAAAAAAAAAAA==

> <PUBCHEM_IUPAC_OPENEYE_NAME>
(2S)-2-[[(2R)-2-[(7S)-7-acetamido-6-oxo-7,8-dihydro-4H-triazolo[1,5-a][1,4]diazepin-5-yl]-3-phenyl-propanoyl]amino]-N-[(1S)-2-amino-1-(1H-indol-3-ylmethyl)-2-oxo-ethyl]-5-guanidino-pentanamide

> <PUBCHEM_IUPAC_CAS_NAME>
(2S)-2-[[(2R)-2-[(7S)-7-acetamido-6-oxo-7,8-dihydro-4H-triazolo[1,5-a][1,4]diazepin-5-yl]-1-oxo-3-phenylpropyl]amino]-N-[(2S)-1-amino-3-(1H-indol-3-yl)-1-oxopropan-2-yl]-5-(diaminomethylideneamino)pentanamide

> <PUBCHEM_IUPAC_NAME>
(2S)-2-[[(2R)-2-[(7S)-7-acetamido-6-oxo-7,8-dihydro-4H-triazolo[1,5-a][1,4]diazepin-5-yl]-3-phenylpropanoyl]amino]-N-[(2S)-1-amino-3-(1H-indol-3-yl)-1-oxopropan-2-yl]-5-(diaminomethylideneamino)pentanamide

> <PUBCHEM_IUPAC_SYSTEMATIC_NAME>
(2S)-2-[[(2R)-2-[(7S)-7-acetamido-6-oxidanylidene-7,8-dihydro-4H-[1,2,3]triazolo[1,5-a][1,4]diazepin-5-yl]-3-phenyl-propanoyl]amino]-N-[(2S)-1-azanyl-3-(1H-indol-3-yl)-1-oxidanylidene-propan-2-yl]-5-[bis(azanyl)methylideneamino]pentanamide

> <PUBCHEM_IUPAC_TRADITIONAL_NAME>
(2S)-2-[[(2R)-2-[(7S)-7-acetamido-6-keto-7,8-dihydro-4H-triazolo[1,5-a][1,4]diazepin-5-yl]-3-phenyl-propanoyl]amino]-N-[(1S)-2-amino-1-(1H-indol-3-ylmethyl)-2-keto-ethyl]-5-guanidino-valeramide

> <PUBCHEM_IUPAC_INCHI>
InChI=1S/C34H42N12O5/c1-20(47)41-28-19-46-23(17-40-44-46)18-45(33(28)51)29(14-21-8-3-2-4-9-21)32(50)42-26(12-7-13-38-34(36)37)31(49)43-27(30(35)48)15-22-16-39-25-11-6-5-10-24(22)25/h2-6,8-11,16-17,26-29,39H,7,12-15,18-19H2,1H3,(H2,35,48)(H,41,47)(H,42,50)(H,43,49)(H4,36,37,38)/t26-,27-,28-,29+/m0/s1

> <PUBCHEM_IUPAC_INCHIKEY>
BVHVEJVRGYHQTC-XFTNXAEASA-N

> <PUBCHEM_XLOGP3_AA>
-0.9

> <PUBCHEM_EXACT_MASS>
698.34

> <PUBCHEM_MOLECULAR_FORMULA>
C34H42N12O5

> <PUBCHEM_MOLECULAR_WEIGHT>
698.789

> <PUBCHEM_OPENEYE_CAN_SMILES>
CC(=O)NC1CN2C(=CN=N2)CN(C1=O)C(CC3=CC=CC=C3)C(=O)NC(CCCN=C(N)N)C(=O)NC(CC4=CNC5=CC=CC=C54)C(=O)N

> <PUBCHEM_OPENEYE_ISO_SMILES>
CC(=O)N[C@H]1CN2C(=CN=N2)CN(C1=O)[C@H](CC3=CC=CC=C3)C(=O)N[C@@H](CCCN=C(N)N)C(=O)N[C@@H](CC4=CNC5=CC=CC=C54)C(=O)N

> <PUBCHEM_CACTVS_TPSA>
262

> <PUBCHEM_MONOISOTOPIC_WEIGHT>
698.34

> <PUBCHEM_TOTAL_CHARGE>
0

> <PUBCHEM_HEAVY_ATOM_COUNT>
51

> <PUBCHEM_ATOM_DEF_STEREO_COUNT>
4

> <PUBCHEM_ATOM_UDEF_STEREO_COUNT>
0

> <PUBCHEM_BOND_DEF_STEREO_COUNT>
0

> <PUBCHEM_BOND_UDEF_STEREO_COUNT>
0

> <PUBCHEM_ISOTOPIC_ATOM_COUNT>
0

> <PUBCHEM_COMPONENT_COUNT>
1

> <PUBCHEM_CACTVS_TAUTO_COUNT>
1000

> <PUBCHEM_COORDINATE_TYPE>
1
5
255

> <PUBCHEM_BONDANNOTATIONS>
10  12  8
32  11  5
12  29  8
13  41  8
13  44  8
18  25  6
24  29  8
28  34  8
28  35  8
34  42  8
35  43  8
36  39  8
36  44  8
39  41  8
39  47  8
41  48  8
42  46  8
43  46  8
47  49  8
48  50  8
49  50  8
7  10  8
7  24  8
26  8  5
19  9  6

$$$$
