118735099
  -OEChem-03161706392D

101106  0     1  0  0  0  0  0999 V2000
    3.4076   -2.4630    0.0000 O   0  0  0  0  0  0  0  0  0  0  0  0
    4.9608    0.5825    0.0000 O   0  0  0  0  0  0  0  0  0  0  0  0
    4.6033   -5.7408    0.0000 O   0  0  0  0  0  0  0  0  0  0  0  0
    8.2755   -0.8362    0.0000 O   0  0  0  0  0  0  0  0  0  0  0  0
    9.2624   -0.9974    0.0000 O   0  0  0  0  0  0  0  0  0  0  0  0
    5.0355   -2.0622    0.0000 N   0  0  0  0  0  0  0  0  0  0  0  0
    7.5585   -2.9610    0.0000 N   0  0  0  0  0  0  0  0  0  0  0  0
    3.6530   -4.2927    0.0000 N   0  0  0  0  0  0  0  0  0  0  0  0
    6.3016   -0.5139    0.0000 N   0  0  0  0  0  0  0  0  0  0  0  0
    8.5546    0.8732    0.0000 N   0  0  0  0  0  0  0  0  0  0  0  0
   12.7176    1.9138    0.0000 N   0  0  0  0  0  0  0  0  0  0  0  0
    7.4929    3.6790    0.0000 N   0  0  0  0  0  0  0  0  0  0  0  0
   10.6695   -0.8563    0.0000 N   0  0  0  0  0  0  0  0  0  0  0  0
    7.7721    5.3884    0.0000 N   0  0  0  0  0  0  0  0  0  0  0  0
    6.1521    4.7755    0.0000 N   0  0  0  0  0  0  0  0  0  0  0  0
    6.2495   -3.9121    0.0000 C   0  0  0  0  0  0  0  0  0  0  0  0
    4.4890   -3.7441    0.0000 C   0  0  1  0  0  0  0  0  0  0  0  0
    6.0127   -2.1461    0.0000 C   0  0  0  0  0  0  0  0  0  0  0  0
    5.3290   -4.2505    0.0000 C   0  0  0  0  0  0  0  0  0  0  0  0
    6.5585   -2.9610    0.0000 C   0  0  0  0  0  0  0  0  0  0  0  0
    4.6816   -1.1269    0.0000 C   0  0  2  0  0  0  0  0  0  0  0  0
    4.3587   -2.7720    0.0000 C   0  0  0  0  0  0  0  0  0  0  0  0
    7.0585   -4.4998    0.0000 C   0  0  0  0  0  0  0  0  0  0  0  0
    3.6947   -0.9657    0.0000 C   0  0  0  0  0  0  0  0  0  0  0  0
    7.8676   -3.9121    0.0000 C   0  0  0  0  0  0  0  0  0  0  0  0
    5.3147   -0.3527    0.0000 C   0  0  0  0  0  0  0  0  0  0  0  0
    6.9346    0.2602    0.0000 C   0  0  1  0  0  0  0  0  0  0  0  0
    7.1514   -5.5373    0.0000 C   0  0  0  0  0  0  0  0  0  0  0  0
    3.3408   -0.0304    0.0000 C   0  0  0  0  0  0  0  0  0  0  0  0
    8.8256   -4.3210    0.0000 C   0  0  0  0  0  0  0  0  0  0  0  0
    6.5808    1.1955    0.0000 C   0  0  0  0  0  0  0  0  0  0  0  0
    8.0997   -5.9683    0.0000 C   0  0  0  0  0  0  0  0  0  0  0  0
    8.9424   -5.3561    0.0000 C   0  0  0  0  0  0  0  0  0  0  0  0
    3.7101   -5.2911    0.0000 C   0  0  0  0  0  0  0  0  0  0  0  0
    7.9216    0.0991    0.0000 C   0  0  0  0  0  0  0  0  0  0  0  0
    7.2138    1.9696    0.0000 C   0  0  0  0  0  0  0  0  0  0  0  0
    3.9739    0.7437    0.0000 C   0  0  0  0  0  0  0  0  0  0  0  0
    2.3539    0.1307    0.0000 C   0  0  0  0  0  0  0  0  0  0  0  0
    9.5415    0.7120    0.0000 C   0  0  1  0  0  0  0  0  0  0  0  0
   10.1746    1.4861    0.0000 C   0  0  0  0  0  0  0  0  0  0  0  0
    2.8741   -5.8397    0.0000 C   0  0  0  0  0  0  0  0  0  0  0  0
    6.8599    2.9049    0.0000 C   0  0  0  0  0  0  0  0  0  0  0  0
   11.1099    1.8400    0.0000 C   0  0  0  0  0  0  0  0  0  0  0  0
    3.6200    1.6790    0.0000 C   0  0  0  0  0  0  0  0  0  0  0  0
    2.0000    1.0660    0.0000 C   0  0  0  0  0  0  0  0  0  0  0  0
    2.6330    1.8402    0.0000 C   0  0  0  0  0  0  0  0  0  0  0  0
   11.3709    2.7992    0.0000 C   0  0  0  0  0  0  0  0  0  0  0  0
    9.8954   -0.2233    0.0000 C   0  0  0  0  0  0  0  0  0  0  0  0
   11.9405    1.2939    0.0000 C   0  0  0  0  0  0  0  0  0  0  0  0
   12.3699    2.8450    0.0000 C   0  0  0  0  0  0  0  0  0  0  0  0
   10.8317    3.6414    0.0000 C   0  0  0  0  0  0  0  0  0  0  0  0
   12.8296    3.7331    0.0000 C   0  0  0  0  0  0  0  0  0  0  0  0
   11.2915    4.5295    0.0000 C   0  0  0  0  0  0  0  0  0  0  0  0
   12.2905    4.5753    0.0000 C   0  0  0  0  0  0  0  0  0  0  0  0
    7.1390    4.6143    0.0000 C   0  0  0  0  0  0  0  0  0  0  0  0
    3.9251   -3.4865    0.0000 H   0  0  0  0  0  0  0  0  0  0  0  0
    6.5919   -1.9249    0.0000 H   0  0  0  0  0  0  0  0  0  0  0  0
    5.9265   -1.5321    0.0000 H   0  0  0  0  0  0  0  0  0  0  0  0
    4.8983   -4.6965    0.0000 H   0  0  0  0  0  0  0  0  0  0  0  0
    5.6675   -4.7699    0.0000 H   0  0  0  0  0  0  0  0  0  0  0  0
    5.2935   -1.2268    0.0000 H   0  0  0  0  0  0  0  0  0  0  0  0
    3.0856   -1.0811    0.0000 H   0  0  0  0  0  0  0  0  0  0  0  0
    3.7026   -1.5856    0.0000 H   0  0  0  0  0  0  0  0  0  0  0  0
    7.9230   -2.4594    0.0000 H   0  0  0  0  0  0  0  0  0  0  0  0
    3.0992   -4.0139    0.0000 H   0  0  0  0  0  0  0  0  0  0  0  0
    7.1540   -0.3197    0.0000 H   0  0  0  0  0  0  0  0  0  0  0  0
    6.6457   -5.8959    0.0000 H   0  0  0  0  0  0  0  0  0  0  0  0
    6.5210   -1.0938    0.0000 H   0  0  0  0  0  0  0  0  0  0  0  0
    9.3229   -3.9508    0.0000 H   0  0  0  0  0  0  0  0  0  0  0  0
    6.1762    1.6654    0.0000 H   0  0  0  0  0  0  0  0  0  0  0  0
    6.0478    0.8787    0.0000 H   0  0  0  0  0  0  0  0  0  0  0  0
    8.1622   -6.5852    0.0000 H   0  0  0  0  0  0  0  0  0  0  0  0
    9.5098   -5.6061    0.0000 H   0  0  0  0  0  0  0  0  0  0  0  0
    7.6183    1.4998    0.0000 H   0  0  0  0  0  0  0  0  0  0  0  0
    7.7468    2.2864    0.0000 H   0  0  0  0  0  0  0  0  0  0  0  0
    4.5858    0.6438    0.0000 H   0  0  0  0  0  0  0  0  0  0  0  0
    1.9614   -0.3492    0.0000 H   0  0  0  0  0  0  0  0  0  0  0  0
    9.3221    1.2919    0.0000 H   0  0  0  0  0  0  0  0  0  0  0  0
    8.3352    1.4531    0.0000 H   0  0  0  0  0  0  0  0  0  0  0  0
   10.1667    2.1061    0.0000 H   0  0  0  0  0  0  0  0  0  0  0  0
   10.5366    0.9828    0.0000 H   0  0  0  0  0  0  0  0  0  0  0  0
    6.4554    3.3748    0.0000 H   0  0  0  0  0  0  0  0  0  0  0  0
    6.3269    2.5881    0.0000 H   0  0  0  0  0  0  0  0  0  0  0  0
    2.5339   -5.3214    0.0000 H   0  0  0  0  0  0  0  0  0  0  0  0
    2.3557   -6.1799    0.0000 H   0  0  0  0  0  0  0  0  0  0  0  0
    3.2142   -6.3581    0.0000 H   0  0  0  0  0  0  0  0  0  0  0  0
    4.0124    2.1590    0.0000 H   0  0  0  0  0  0  0  0  0  0  0  0
    1.3881    1.1660    0.0000 H   0  0  0  0  0  0  0  0  0  0  0  0
    2.4136    2.4200    0.0000 H   0  0  0  0  0  0  0  0  0  0  0  0
   11.9689    0.6746    0.0000 H   0  0  0  0  0  0  0  0  0  0  0  0
   13.3152    1.7484    0.0000 H   0  0  0  0  0  0  0  0  0  0  0  0
   10.2124    3.6130    0.0000 H   0  0  0  0  0  0  0  0  0  0  0  0
   13.4490    3.7615    0.0000 H   0  0  0  0  0  0  0  0  0  0  0  0
   10.5696   -1.4682    0.0000 H   0  0  0  0  0  0  0  0  0  0  0  0
   11.2494   -0.6369    0.0000 H   0  0  0  0  0  0  0  0  0  0  0  0
   10.9573    5.0516    0.0000 H   0  0  0  0  0  0  0  0  0  0  0  0
   12.5756    5.1259    0.0000 H   0  0  0  0  0  0  0  0  0  0  0  0
    7.5526    5.9683    0.0000 H   0  0  0  0  0  0  0  0  0  0  0  0
    8.3840    5.2885    0.0000 H   0  0  0  0  0  0  0  0  0  0  0  0
    5.9327    5.3554    0.0000 H   0  0  0  0  0  0  0  0  0  0  0  0
    5.7596    4.2955    0.0000 H   0  0  0  0  0  0  0  0  0  0  0  0
  1 22  2  0  0  0  0
  2 26  2  0  0  0  0
  3 34  2  0  0  0  0
  4 35  2  0  0  0  0
  5 48  2  0  0  0  0
  6 18  1  0  0  0  0
  6 21  1  0  0  0  0
  6 22  1  0  0  0  0
  7 20  1  0  0  0  0
  7 25  1  0  0  0  0
  7 64  1  0  0  0  0
 17  8  1  6  0  0  0
  8 34  1  0  0  0  0
  8 65  1  0  0  0  0
  9 26  1  0  0  0  0
 27  9  1  1  0  0  0
  9 68  1  0  0  0  0
 10 35  1  0  0  0  0
 39 10  1  1  0  0  0
 10 79  1  0  0  0  0
 11 49  1  0  0  0  0
 11 50  1  0  0  0  0
 11 91  1  0  0  0  0
 12 42  1  0  0  0  0
 12 55  2  0  0  0  0
 13 48  1  0  0  0  0
 13 94  1  0  0  0  0
 13 95  1  0  0  0  0
 14 55  1  0  0  0  0
 14 98  1  0  0  0  0
 14 99  1  0  0  0  0
 15 55  1  0  0  0  0
 15100  1  0  0  0  0
 15101  1  0  0  0  0
 16 19  1  0  0  0  0
 16 20  2  0  0  0  0
 16 23  1  0  0  0  0
 17 19  1  0  0  0  0
 17 22  1  0  0  0  0
 17 56  1  0  0  0  0
 18 20  1  0  0  0  0
 18 57  1  0  0  0  0
 18 58  1  0  0  0  0
 19 59  1  0  0  0  0
 19 60  1  0  0  0  0
 21 24  1  0  0  0  0
 21 26  1  6  0  0  0
 21 61  1  0  0  0  0
 23 25  1  0  0  0  0
 23 28  2  0  0  0  0
 24 29  1  0  0  0  0
 24 62  1  0  0  0  0
 24 63  1  0  0  0  0
 25 30  2  0  0  0  0
 27 31  1  0  0  0  0
 27 35  1  0  0  0  0
 27 66  1  0  0  0  0
 28 32  1  0  0  0  0
 28 67  1  0  0  0  0
 29 37  2  0  0  0  0
 29 38  1  0  0  0  0
 30 33  1  0  0  0  0
 30 69  1  0  0  0  0
 31 36  1  0  0  0  0
 31 70  1  0  0  0  0
 31 71  1  0  0  0  0
 32 33  2  0  0  0  0
 32 72  1  0  0  0  0
 33 73  1  0  0  0  0
 34 41  1  0  0  0  0
 36 42  1  0  0  0  0
 36 74  1  0  0  0  0
 36 75  1  0  0  0  0
 37 44  1  0  0  0  0
 37 76  1  0  0  0  0
 38 45  2  0  0  0  0
 38 77  1  0  0  0  0
 39 40  1  0  0  0  0
 39 48  1  0  0  0  0
 39 78  1  0  0  0  0
 40 43  1  0  0  0  0
 40 80  1  0  0  0  0
 40 81  1  0  0  0  0
 41 84  1  0  0  0  0
 41 85  1  0  0  0  0
 41 86  1  0  0  0  0
 42 82  1  0  0  0  0
 42 83  1  0  0  0  0
 43 47  1  0  0  0  0
 43 49  2  0  0  0  0
 44 46  2  0  0  0  0
 44 87  1  0  0  0  0
 45 46  1  0  0  0  0
 45 88  1  0  0  0  0
 46 89  1  0  0  0  0
 47 50  1  0  0  0  0
 47 51  2  0  0  0  0
 49 90  1  0  0  0  0
 50 52  2  0  0  0  0
 51 53  1  0  0  0  0
 51 92  1  0  0  0  0
 52 54  1  0  0  0  0
 52 93  1  0  0  0  0
 53 54  2  0  0  0  0
 53 96  1  0  0  0  0
 54 97  1  0  0  0  0
M  END
> <PUBCHEM_COMPOUND_CID>
118735099

> <PUBCHEM_COMPOUND_CANONICALIZED>
1

> <PUBCHEM_CACTVS_COMPLEXITY>
1400

> <PUBCHEM_CACTVS_HBOND_ACCEPTOR>
6

> <PUBCHEM_CACTVS_HBOND_DONOR>
8

> <PUBCHEM_CACTVS_ROTATABLE_BOND>
15

> <PUBCHEM_CACTVS_SUBSKEYS>
AAADcfB/+AAAAAAAAAAAAAAAAAAAAWLAAAAwYMAABYAAAFix/gAAHgAQAAAADCjBngQ/wPPJkACoAzV3dACCgCExAiAI2aG4ZJgIYPLAkbGUIAhglgDIyAcYicCegAAAAAACAAAAAAAAAAQAAAAAAAAAAA==

> <PUBCHEM_IUPAC_OPENEYE_NAME>
(2S)-2-[[(2R)-2-[(4S)-4-acetamido-3-oxo-1,4,5,10-tetrahydroazepino[3,4-b]indol-2-yl]-3-phenyl-propanoyl]amino]-N-[(1S)-2-amino-1-(1H-indol-3-ylmethyl)-2-oxo-ethyl]-5-guanidino-pentanamide

> <PUBCHEM_IUPAC_CAS_NAME>
(2S)-2-[[(2R)-2-[(4S)-4-acetamido-3-oxo-1,4,5,10-tetrahydroazepino[3,4-b]indol-2-yl]-1-oxo-3-phenylpropyl]amino]-N-[(2S)-1-amino-3-(1H-indol-3-yl)-1-oxopropan-2-yl]-5-(diaminomethylideneamino)pentanamide

> <PUBCHEM_IUPAC_NAME>
(2S)-2-[[(2R)-2-[(4S)-4-acetamido-3-oxo-1,4,5,10-tetrahydroazepino[3,4-b]indol-2-yl]-3-phenylpropanoyl]amino]-N-[(2S)-1-amino-3-(1H-indol-3-yl)-1-oxopropan-2-yl]-5-(diaminomethylideneamino)pentanamide

> <PUBCHEM_IUPAC_SYSTEMATIC_NAME>
(2S)-2-[[(2R)-2-[(4S)-4-acetamido-3-oxidanylidene-1,4,5,10-tetrahydroazepino[3,4-b]indol-2-yl]-3-phenyl-propanoyl]amino]-N-[(2S)-1-azanyl-3-(1H-indol-3-yl)-1-oxidanylidene-propan-2-yl]-5-[bis(azanyl)methylideneamino]pentanamide

> <PUBCHEM_IUPAC_TRADITIONAL_NAME>
(2S)-2-[[(2R)-2-[(4S)-4-acetamido-3-keto-1,4,5,10-tetrahydroazepin[3,4-b]indol-2-yl]-3-phenyl-propanoyl]amino]-N-[(1S)-2-amino-1-(1H-indol-3-ylmethyl)-2-keto-ethyl]-5-guanidino-valeramide

> <PUBCHEM_IUPAC_INCHI>
InChI=1S/C40H46N10O5/c1-23(51)46-33-20-28-27-13-6-8-15-30(27)47-34(28)22-50(39(33)55)35(18-24-10-3-2-4-11-24)38(54)48-31(16-9-17-44-40(42)43)37(53)49-32(36(41)52)19-25-21-45-29-14-7-5-12-26(25)29/h2-8,10-15,21,31-33,35,45,47H,9,16-20,22H2,1H3,(H2,41,52)(H,46,51)(H,48,54)(H,49,53)(H4,42,43,44)/t31-,32-,33-,35+/m0/s1

> <PUBCHEM_IUPAC_INCHIKEY>
QZCMROJSSNRQQT-UJWBSGRQSA-N

> <PUBCHEM_XLOGP3_AA>
1.7

> <PUBCHEM_EXACT_MASS>
746.365

> <PUBCHEM_MOLECULAR_FORMULA>
C40H46N10O5

> <PUBCHEM_MOLECULAR_WEIGHT>
746.873

> <PUBCHEM_OPENEYE_CAN_SMILES>
CC(=O)NC1CC2=C(CN(C1=O)C(CC3=CC=CC=C3)C(=O)NC(CCCN=C(N)N)C(=O)NC(CC4=CNC5=CC=CC=C54)C(=O)N)NC6=CC=CC=C26

> <PUBCHEM_OPENEYE_ISO_SMILES>
CC(=O)N[C@H]1CC2=C(CN(C1=O)[C@H](CC3=CC=CC=C3)C(=O)N[C@@H](CCCN=C(N)N)C(=O)N[C@@H](CC4=CNC5=CC=CC=C54)C(=O)N)NC6=CC=CC=C26

> <PUBCHEM_CACTVS_TPSA>
247

> <PUBCHEM_MONOISOTOPIC_WEIGHT>
746.365

> <PUBCHEM_TOTAL_CHARGE>
0

> <PUBCHEM_HEAVY_ATOM_COUNT>
55

> <PUBCHEM_ATOM_DEF_STEREO_COUNT>
4

> <PUBCHEM_ATOM_UDEF_STEREO_COUNT>
0

> <PUBCHEM_BOND_DEF_STEREO_COUNT>
0

> <PUBCHEM_BOND_UDEF_STEREO_COUNT>
0

> <PUBCHEM_ISOTOPIC_ATOM_COUNT>
0

> <PUBCHEM_COMPONENT_COUNT>
1

> <PUBCHEM_CACTVS_TAUTO_COUNT>
998

> <PUBCHEM_COORDINATE_TYPE>
1
5
255

> <PUBCHEM_BONDANNOTATIONS>
39  10  5
11  49  8
11  50  8
16  20  8
16  23  8
21  26  6
23  25  8
23  28  8
25  30  8
28  32  8
29  37  8
29  38  8
30  33  8
32  33  8
37  44  8
38  45  8
43  47  8
43  49  8
44  46  8
45  46  8
47  50  8
47  51  8
50  52  8
51  53  8
52  54  8
53  54  8
7  20  8
7  25  8
17  8  6
27  9  5

$$$$
