118735685
  -OEChem-03161706412D

255260  0     1  0  0  0  0  0999 V2000
    7.7438    1.7411    0.0000 O   0  0  0  0  0  0  0  0  0  0  0  0
   20.6251    0.4113    0.0000 O   0  0  0  0  0  0  0  0  0  0  0  0
    6.3872    5.0817    0.0000 O   0  0  0  0  0  0  0  0  0  0  0  0
   17.1610   -0.5887    0.0000 O   0  0  0  0  0  0  0  0  0  0  0  0
   26.6873   -7.0887    0.0000 O   0  0  0  0  0  0  0  0  0  0  0  0
   21.4911    0.9113    0.0000 O   0  0  0  0  0  0  0  0  0  0  0  0
   24.9552   -5.0887    0.0000 O   0  0  0  0  0  0  0  0  0  0  0  0
   16.2950   -1.0887    0.0000 O   0  0  0  0  0  0  0  0  0  0  0  0
   23.2232   -8.0887    0.0000 O   0  0  0  0  0  0  0  0  0  0  0  0
   24.0892   -9.5887    0.0000 O   0  0  0  0  0  0  0  0  0  0  0  0
   10.2328   -2.5887    0.0000 O   0  0  0  0  0  0  0  0  0  0  0  0
    2.8158    5.5771    0.0000 O   0  0  0  0  0  0  0  0  0  0  0  0
   13.6969   -3.5887    0.0000 O   0  0  0  0  0  0  0  0  0  0  0  0
   13.6969   -0.5887    0.0000 O   0  0  0  0  0  0  0  0  0  0  0  0
   18.8931   -3.5887    0.0000 O   0  0  0  0  0  0  0  0  0  0  0  0
   21.4911    1.9113    0.0000 O   0  0  0  0  0  0  0  0  0  0  0  0
   27.5533    2.4113    0.0000 O   0  0  0  0  0  0  0  0  0  0  0  0
    2.4537    9.0223    0.0000 O   0  0  0  0  0  0  0  0  0  0  0  0
    9.7328    1.9502    0.0000 N   0  0  0  0  0  0  0  0  0  0  0  0
    7.5627    3.4637    0.0000 N   0  0  0  0  0  0  0  0  0  0  0  0
   19.7591   -1.0887    0.0000 N   0  0  0  0  0  0  0  0  0  0  0  0
   22.3572   -0.5887    0.0000 N   0  0  0  0  0  0  0  0  0  0  0  0
    4.9859    4.0636    0.0000 N   0  0  0  0  0  0  0  0  0  0  0  0
   10.7328    1.9502    0.0000 N   0  0  0  0  0  0  0  0  0  0  0  0
   18.0270   -2.0887    0.0000 N   0  0  0  0  0  0  0  0  0  0  0  0
   25.8213   -8.5887    0.0000 N   0  0  0  0  0  0  0  0  0  0  0  0
   23.2232   -5.0887    0.0000 N   0  0  0  0  0  0  0  0  0  0  0  0
   16.4522    1.2432    0.0000 N   0  0  0  0  0  0  0  0  0  0  0  0
   11.0418    0.9991    0.0000 N   0  0  0  0  0  0  0  0  0  0  0  0
   23.2232    1.9113    0.0000 N   0  0  0  0  0  0  0  0  0  0  0  0
   11.0988   -1.0887    0.0000 N   0  0  0  0  0  0  0  0  0  0  0  0
    3.7657    1.3230    0.0000 N   0  0  0  0  0  0  0  0  0  0  0  0
   15.4290   -2.5887    0.0000 N   0  0  0  0  0  0  0  0  0  0  0  0
   12.8309   -2.0887    0.0000 N   0  0  0  0  0  0  0  0  0  0  0  0
    2.9968    3.8546    0.0000 N   0  0  0  0  0  0  0  0  0  0  0  0
   18.0270   -5.0887    0.0000 N   0  0  0  0  0  0  0  0  0  0  0  0
    2.3644    0.3049    0.0000 N   0  0  0  0  0  0  0  0  0  0  0  0
    3.9467   -0.3996    0.0000 N   0  0  0  0  0  0  0  0  0  0  0  0
   32.7495   -8.5887    0.0000 C   0  0  0  0  0  0  0  0  0  0  0  0
   33.6155   -8.0887    0.0000 C   0  0  0  0  0  0  0  0  0  0  0  0
   31.8835   -8.0887    0.0000 C   0  0  0  0  0  0  0  0  0  0  0  0
   34.4815   -8.5887    0.0000 C   0  0  0  0  0  0  0  0  0  0  0  0
   31.0174   -8.5887    0.0000 C   0  0  0  0  0  0  0  0  0  0  0  0
   35.3476   -8.0887    0.0000 C   0  0  0  0  0  0  0  0  0  0  0  0
   30.1514   -8.0887    0.0000 C   0  0  0  0  0  0  0  0  0  0  0  0
   36.2136   -8.5887    0.0000 C   0  0  0  0  0  0  0  0  0  0  0  0
    9.1450    2.7592    0.0000 C   0  0  1  0  0  0  0  0  0  0  0  0
   29.2854   -8.5887    0.0000 C   0  0  0  0  0  0  0  0  0  0  0  0
    9.5518    3.6727    0.0000 C   0  0  0  0  0  0  0  0  0  0  0  0
   37.0796   -8.0887    0.0000 C   0  0  0  0  0  0  0  0  0  0  0  0
   10.5463    3.7773    0.0000 C   0  0  0  0  0  0  0  0  0  0  0  0
   28.4194   -8.0887    0.0000 C   0  0  0  0  0  0  0  0  0  0  0  0
   21.4911   -1.0887    0.0000 C   0  0  1  0  0  0  0  0  0  0  0  0
   37.9456   -8.5887    0.0000 C   0  0  0  0  0  0  0  0  0  0  0  0
    6.5682    3.3592    0.0000 C   0  0  1  0  0  0  0  0  0  0  0  0
   21.4911   -2.0887    0.0000 C   0  0  0  0  0  0  0  0  0  0  0  0
    8.1505    2.6547    0.0000 C   0  0  0  0  0  0  0  0  0  0  0  0
   18.8931   -0.5887    0.0000 C   0  0  1  0  0  0  0  0  0  0  0  0
   22.3572   -2.5887    0.0000 C   0  0  0  0  0  0  0  0  0  0  0  0
    6.1615    2.4456    0.0000 C   0  0  0  0  0  0  0  0  0  0  0  0
   27.5533   -8.5887    0.0000 C   0  0  0  0  0  0  0  0  0  0  0  0
   18.8931    0.4113    0.0000 C   0  0  0  0  0  0  0  0  0  0  0  0
   10.9530    4.6908    0.0000 C   0  0  0  0  0  0  0  0  0  0  0  0
   11.1341    2.9682    0.0000 C   0  0  0  0  0  0  0  0  0  0  0  0
   22.3572   -3.5887    0.0000 C   0  0  0  0  0  0  0  0  0  0  0  0
   38.8117   -8.0887    0.0000 C   0  0  0  0  0  0  0  0  0  0  0  0
   20.6251   -0.5887    0.0000 C   0  0  0  0  0  0  0  0  0  0  0  0
    5.1669    2.3411    0.0000 C   0  0  0  0  0  0  0  0  0  0  0  0
   18.0270    0.9113    0.0000 C   0  0  0  0  0  0  0  0  0  0  0  0
    5.9804    4.1682    0.0000 C   0  0  0  0  0  0  0  0  0  0  0  0
   23.2232   -4.0887    0.0000 C   0  0  0  0  0  0  0  0  0  0  0  0
    9.4238    0.9991    0.0000 C   0  0  0  0  0  0  0  0  0  0  0  0
   18.0270   -1.0887    0.0000 C   0  0  0  0  0  0  0  0  0  0  0  0
   26.6873   -8.0887    0.0000 C   0  0  0  0  0  0  0  0  0  0  0  0
   17.9240    1.9001    0.0000 C   0  0  0  0  0  0  0  0  0  0  0  0
   23.2232    0.9113    0.0000 C   0  0  2  0  0  0  0  0  0  0  0  0
   24.9552   -8.0887    0.0000 C   0  0  1  0  0  0  0  0  0  0  0  0
   22.3572    0.4113    0.0000 C   0  0  0  0  0  0  0  0  0  0  0  0
   10.2328    0.4113    0.0000 C   0  0  0  0  0  0  0  0  0  0  0  0
    4.7602    1.4275    0.0000 C   0  0  0  0  0  0  0  0  0  0  0  0
   17.1610   -2.5887    0.0000 C   0  0  1  0  0  0  0  0  0  0  0  0
   24.9552   -7.0887    0.0000 C   0  0  0  0  0  0  0  0  0  0  0  0
    4.3981    4.8726    0.0000 C   0  0  1  0  0  0  0  0  0  0  0  0
   39.6777   -8.5887    0.0000 C   0  0  0  0  0  0  0  0  0  0  0  0
   16.9455    2.1063    0.0000 C   0  0  0  0  0  0  0  0  0  0  0  0
   17.1193    0.5062    0.0000 C   0  0  0  0  0  0  0  0  0  0  0  0
   24.0892   -6.5887    0.0000 C   0  0  0  0  0  0  0  0  0  0  0  0
   24.0892    0.4113    0.0000 C   0  0  0  0  0  0  0  0  0  0  0  0
   10.2328   -0.5887    0.0000 C   0  0  0  0  0  0  0  0  0  0  0  0
    4.8048    5.7862    0.0000 C   0  0  0  0  0  0  0  0  0  0  0  0
   24.0892   -5.5887    0.0000 C   0  0  0  0  0  0  0  0  0  0  0  0
   17.1610   -3.5887    0.0000 C   0  0  0  0  0  0  0  0  0  0  0  0
   18.5918    2.6444    0.0000 C   0  0  0  0  0  0  0  0  0  0  0  0
   16.2950   -2.0887    0.0000 C   0  0  0  0  0  0  0  0  0  0  0  0
   11.9649   -2.5887    0.0000 C   0  0  2  0  0  0  0  0  0  0  0  0
   14.5629   -2.0887    0.0000 C   0  0  2  0  0  0  0  0  0  0  0  0
   16.6348    3.0568    0.0000 C   0  0  0  0  0  0  0  0  0  0  0  0
   24.9552    0.9113    0.0000 C   0  0  0  0  0  0  0  0  0  0  0  0
   24.0892   -8.5887    0.0000 C   0  0  0  0  0  0  0  0  0  0  0  0
    3.4036    4.7681    0.0000 C   0  0  0  0  0  0  0  0  0  0  0  0
   11.0988   -2.0887    0.0000 C   0  0  0  0  0  0  0  0  0  0  0  0
   11.9649   -3.5887    0.0000 C   0  0  0  0  0  0  0  0  0  0  0  0
    4.2171    6.5952    0.0000 C   0  0  0  0  0  0  0  0  0  0  0  0
   18.2812    3.5949    0.0000 C   0  0  0  0  0  0  0  0  0  0  0  0
   17.3027    3.8011    0.0000 C   0  0  0  0  0  0  0  0  0  0  0  0
   13.6969   -2.5887    0.0000 C   0  0  0  0  0  0  0  0  0  0  0  0
   14.5629   -1.0887    0.0000 C   0  0  0  0  0  0  0  0  0  0  0  0
   18.0270   -4.0887    0.0000 C   0  0  0  0  0  0  0  0  0  0  0  0
   22.3572    2.4113    0.0000 C   0  0  0  0  0  0  0  0  0  0  0  0
   25.8213    0.4113    0.0000 C   0  0  0  0  0  0  0  0  0  0  0  0
   24.9552    1.9113    0.0000 C   0  0  0  0  0  0  0  0  0  0  0  0
   11.0988   -4.0887    0.0000 C   0  0  0  0  0  0  0  0  0  0  0  0
    3.3590    0.4095    0.0000 C   0  0  0  0  0  0  0  0  0  0  0  0
    3.2225    6.4907    0.0000 C   0  0  0  0  0  0  0  0  0  0  0  0
    4.6238    7.5088    0.0000 C   0  0  0  0  0  0  0  0  0  0  0  0
   26.6873    0.9113    0.0000 C   0  0  0  0  0  0  0  0  0  0  0  0
   25.8213    2.4113    0.0000 C   0  0  0  0  0  0  0  0  0  0  0  0
   22.3572    3.4113    0.0000 C   0  0  0  0  0  0  0  0  0  0  0  0
    2.6348    7.2997    0.0000 C   0  0  0  0  0  0  0  0  0  0  0  0
    4.0360    8.3178    0.0000 C   0  0  0  0  0  0  0  0  0  0  0  0
   26.6873    1.9113    0.0000 C   0  0  0  0  0  0  0  0  0  0  0  0
   11.0988   -5.0887    0.0000 C   0  0  0  0  0  0  0  0  0  0  0  0
   10.2328   -3.5887    0.0000 C   0  0  0  0  0  0  0  0  0  0  0  0
    3.0415    8.2132    0.0000 C   0  0  0  0  0  0  0  0  0  0  0  0
   10.2328   -5.5887    0.0000 C   0  0  0  0  0  0  0  0  0  0  0  0
    9.3668   -4.0887    0.0000 C   0  0  0  0  0  0  0  0  0  0  0  0
    9.3668   -5.0887    0.0000 C   0  0  0  0  0  0  0  0  0  0  0  0
   32.3509   -9.0636    0.0000 H   0  0  0  0  0  0  0  0  0  0  0  0
   33.1480   -9.0636    0.0000 H   0  0  0  0  0  0  0  0  0  0  0  0
   34.0140   -7.6137    0.0000 H   0  0  0  0  0  0  0  0  0  0  0  0
   33.2170   -7.6137    0.0000 H   0  0  0  0  0  0  0  0  0  0  0  0
   32.2820   -7.6137    0.0000 H   0  0  0  0  0  0  0  0  0  0  0  0
   31.4849   -7.6137    0.0000 H   0  0  0  0  0  0  0  0  0  0  0  0
   34.0830   -9.0636    0.0000 H   0  0  0  0  0  0  0  0  0  0  0  0
   34.8801   -9.0636    0.0000 H   0  0  0  0  0  0  0  0  0  0  0  0
   30.6189   -9.0636    0.0000 H   0  0  0  0  0  0  0  0  0  0  0  0
   31.4160   -9.0636    0.0000 H   0  0  0  0  0  0  0  0  0  0  0  0
   35.7461   -7.6137    0.0000 H   0  0  0  0  0  0  0  0  0  0  0  0
   34.9490   -7.6137    0.0000 H   0  0  0  0  0  0  0  0  0  0  0  0
   30.5499   -7.6137    0.0000 H   0  0  0  0  0  0  0  0  0  0  0  0
   29.7529   -7.6137    0.0000 H   0  0  0  0  0  0  0  0  0  0  0  0
   35.8151   -9.0636    0.0000 H   0  0  0  0  0  0  0  0  0  0  0  0
   36.6121   -9.0636    0.0000 H   0  0  0  0  0  0  0  0  0  0  0  0
    9.5095    2.2576    0.0000 H   0  0  0  0  0  0  0  0  0  0  0  0
    9.5950    4.2912    0.0000 H   0  0  0  0  0  0  0  0  0  0  0  0
    8.9502    3.8227    0.0000 H   0  0  0  0  0  0  0  0  0  0  0  0
   28.8868   -9.0636    0.0000 H   0  0  0  0  0  0  0  0  0  0  0  0
   29.6839   -9.0636    0.0000 H   0  0  0  0  0  0  0  0  0  0  0  0
   37.4781   -7.6137    0.0000 H   0  0  0  0  0  0  0  0  0  0  0  0
   36.6811   -7.6137    0.0000 H   0  0  0  0  0  0  0  0  0  0  0  0
   10.2941    3.2109    0.0000 H   0  0  0  0  0  0  0  0  0  0  0  0
   28.8179   -7.6137    0.0000 H   0  0  0  0  0  0  0  0  0  0  0  0
   28.0208   -7.6137    0.0000 H   0  0  0  0  0  0  0  0  0  0  0  0
   22.0281   -1.3987    0.0000 H   0  0  0  0  0  0  0  0  0  0  0  0
   37.5471   -9.0636    0.0000 H   0  0  0  0  0  0  0  0  0  0  0  0
   38.3442   -9.0636    0.0000 H   0  0  0  0  0  0  0  0  0  0  0  0
    6.8204    3.9256    0.0000 H   0  0  0  0  0  0  0  0  0  0  0  0
   20.8806   -1.9810    0.0000 H   0  0  0  0  0  0  0  0  0  0  0  0
   21.2791   -2.6713    0.0000 H   0  0  0  0  0  0  0  0  0  0  0  0
   18.8931   -1.2087    0.0000 H   0  0  0  0  0  0  0  0  0  0  0  0
   22.9678   -2.6963    0.0000 H   0  0  0  0  0  0  0  0  0  0  0  0
   22.5692   -2.0061    0.0000 H   0  0  0  0  0  0  0  0  0  0  0  0
    6.1182    1.8271    0.0000 H   0  0  0  0  0  0  0  0  0  0  0  0
    6.7630    2.2956    0.0000 H   0  0  0  0  0  0  0  0  0  0  0  0
   27.1548   -9.0636    0.0000 H   0  0  0  0  0  0  0  0  0  0  0  0
   27.9519   -9.0636    0.0000 H   0  0  0  0  0  0  0  0  0  0  0  0
    7.8149    4.0301    0.0000 H   0  0  0  0  0  0  0  0  0  0  0  0
   19.5037    0.3037    0.0000 H   0  0  0  0  0  0  0  0  0  0  0  0
   19.1051    0.9939    0.0000 H   0  0  0  0  0  0  0  0  0  0  0  0
   11.5194    4.4386    0.0000 H   0  0  0  0  0  0  0  0  0  0  0  0
   11.2052    5.2572    0.0000 H   0  0  0  0  0  0  0  0  0  0  0  0
   10.3866    4.9430    0.0000 H   0  0  0  0  0  0  0  0  0  0  0  0
   10.6325    2.6038    0.0000 H   0  0  0  0  0  0  0  0  0  0  0  0
   11.4985    2.4667    0.0000 H   0  0  0  0  0  0  0  0  0  0  0  0
   11.6357    3.3327    0.0000 H   0  0  0  0  0  0  0  0  0  0  0  0
   21.7466   -3.4810    0.0000 H   0  0  0  0  0  0  0  0  0  0  0  0
   22.1451   -4.1713    0.0000 H   0  0  0  0  0  0  0  0  0  0  0  0
   39.2102   -7.6137    0.0000 H   0  0  0  0  0  0  0  0  0  0  0  0
   38.4131   -7.6137    0.0000 H   0  0  0  0  0  0  0  0  0  0  0  0
   19.7591   -1.7087    0.0000 H   0  0  0  0  0  0  0  0  0  0  0  0
    5.2102    2.9596    0.0000 H   0  0  0  0  0  0  0  0  0  0  0  0
    4.5654    2.4911    0.0000 H   0  0  0  0  0  0  0  0  0  0  0  0
   22.8941   -0.8987    0.0000 H   0  0  0  0  0  0  0  0  0  0  0  0
   23.8338   -4.1963    0.0000 H   0  0  0  0  0  0  0  0  0  0  0  0
   23.4353   -3.5061    0.0000 H   0  0  0  0  0  0  0  0  0  0  0  0
    8.8341    0.8075    0.0000 H   0  0  0  0  0  0  0  0  0  0  0  0
   22.6863    1.2213    0.0000 H   0  0  0  0  0  0  0  0  0  0  0  0
   25.4922   -7.7787    0.0000 H   0  0  0  0  0  0  0  0  0  0  0  0
    4.7170    0.8090    0.0000 H   0  0  0  0  0  0  0  0  0  0  0  0
    5.3618    1.2775    0.0000 H   0  0  0  0  0  0  0  0  0  0  0  0
   17.1610   -1.9687    0.0000 H   0  0  0  0  0  0  0  0  0  0  0  0
   25.5658   -7.1963    0.0000 H   0  0  0  0  0  0  0  0  0  0  0  0
   25.1673   -6.5061    0.0000 H   0  0  0  0  0  0  0  0  0  0  0  0
    4.7337    3.4972    0.0000 H   0  0  0  0  0  0  0  0  0  0  0  0
    4.1459    4.3063    0.0000 H   0  0  0  0  0  0  0  0  0  0  0  0
   39.3677   -9.1256    0.0000 H   0  0  0  0  0  0  0  0  0  0  0  0
   40.2146   -8.8987    0.0000 H   0  0  0  0  0  0  0  0  0  0  0  0
   39.9877   -8.0517    0.0000 H   0  0  0  0  0  0  0  0  0  0  0  0
   18.5640   -2.3987    0.0000 H   0  0  0  0  0  0  0  0  0  0  0  0
   25.8213   -9.2087    0.0000 H   0  0  0  0  0  0  0  0  0  0  0  0
   16.9914   -0.1005    0.0000 H   0  0  0  0  0  0  0  0  0  0  0  0
   23.4786   -6.4810    0.0000 H   0  0  0  0  0  0  0  0  0  0  0  0
   23.8772   -7.1713    0.0000 H   0  0  0  0  0  0  0  0  0  0  0  0
   22.6863   -5.3987    0.0000 H   0  0  0  0  0  0  0  0  0  0  0  0
   23.6907   -0.0636    0.0000 H   0  0  0  0  0  0  0  0  0  0  0  0
   24.4878   -0.0636    0.0000 H   0  0  0  0  0  0  0  0  0  0  0  0
    9.6222   -0.4810    0.0000 H   0  0  0  0  0  0  0  0  0  0  0  0
   10.0208   -1.1713    0.0000 H   0  0  0  0  0  0  0  0  0  0  0  0
   15.8358    1.1763    0.0000 H   0  0  0  0  0  0  0  0  0  0  0  0
    5.3188    5.4395    0.0000 H   0  0  0  0  0  0  0  0  0  0  0  0
    5.2355    6.2322    0.0000 H   0  0  0  0  0  0  0  0  0  0  0  0
   16.5504   -3.4810    0.0000 H   0  0  0  0  0  0  0  0  0  0  0  0
   16.9490   -4.1713    0.0000 H   0  0  0  0  0  0  0  0  0  0  0  0
   19.1985    2.5165    0.0000 H   0  0  0  0  0  0  0  0  0  0  0  0
   12.5018   -2.8987    0.0000 H   0  0  0  0  0  0  0  0  0  0  0  0
   23.7601    2.2213    0.0000 H   0  0  0  0  0  0  0  0  0  0  0  0
   14.5629   -2.7087    0.0000 H   0  0  0  0  0  0  0  0  0  0  0  0
   16.0281    3.1846    0.0000 H   0  0  0  0  0  0  0  0  0  0  0  0
   11.6358   -0.7787    0.0000 H   0  0  0  0  0  0  0  0  0  0  0  0
    3.4013    1.8246    0.0000 H   0  0  0  0  0  0  0  0  0  0  0  0
   15.4290   -3.2087    0.0000 H   0  0  0  0  0  0  0  0  0  0  0  0
   12.1769   -4.1713    0.0000 H   0  0  0  0  0  0  0  0  0  0  0  0
   12.5754   -3.4810    0.0000 H   0  0  0  0  0  0  0  0  0  0  0  0
   18.6952    4.0564    0.0000 H   0  0  0  0  0  0  0  0  0  0  0  0
   12.8309   -1.4687    0.0000 H   0  0  0  0  0  0  0  0  0  0  0  0
   17.1101    4.3904    0.0000 H   0  0  0  0  0  0  0  0  0  0  0  0
   15.1735   -1.1963    0.0000 H   0  0  0  0  0  0  0  0  0  0  0  0
   14.7750   -0.5061    0.0000 H   0  0  0  0  0  0  0  0  0  0  0  0
   25.8213   -0.2087    0.0000 H   0  0  0  0  0  0  0  0  0  0  0  0
   24.4183    2.2213    0.0000 H   0  0  0  0  0  0  0  0  0  0  0  0
    2.9704    5.9243    0.0000 H   0  0  0  0  0  0  0  0  0  0  0  0
    5.2404    7.5736    0.0000 H   0  0  0  0  0  0  0  0  0  0  0  0
    2.3803    3.7898    0.0000 H   0  0  0  0  0  0  0  0  0  0  0  0
    3.3613    3.3530    0.0000 H   0  0  0  0  0  0  0  0  0  0  0  0
   27.2242    0.6013    0.0000 H   0  0  0  0  0  0  0  0  0  0  0  0
   25.8213    3.0313    0.0000 H   0  0  0  0  0  0  0  0  0  0  0  0
   22.6863   -8.3987    0.0000 H   0  0  0  0  0  0  0  0  0  0  0  0
   22.9772    3.4113    0.0000 H   0  0  0  0  0  0  0  0  0  0  0  0
   22.3572    4.0313    0.0000 H   0  0  0  0  0  0  0  0  0  0  0  0
   21.7372    3.4113    0.0000 H   0  0  0  0  0  0  0  0  0  0  0  0
    2.0182    7.2349    0.0000 H   0  0  0  0  0  0  0  0  0  0  0  0
    4.2882    8.8842    0.0000 H   0  0  0  0  0  0  0  0  0  0  0  0
   11.6358   -5.3987    0.0000 H   0  0  0  0  0  0  0  0  0  0  0  0
   10.2328   -2.9687    0.0000 H   0  0  0  0  0  0  0  0  0  0  0  0
   18.5640   -5.3987    0.0000 H   0  0  0  0  0  0  0  0  0  0  0  0
   17.4901   -5.3987    0.0000 H   0  0  0  0  0  0  0  0  0  0  0  0
   13.6969    0.0313    0.0000 H   0  0  0  0  0  0  0  0  0  0  0  0
    2.1122   -0.2615    0.0000 H   0  0  0  0  0  0  0  0  0  0  0  0
    2.0000    0.8065    0.0000 H   0  0  0  0  0  0  0  0  0  0  0  0
   10.2328   -6.2087    0.0000 H   0  0  0  0  0  0  0  0  0  0  0  0
    8.8299   -3.7787    0.0000 H   0  0  0  0  0  0  0  0  0  0  0  0
    3.6946   -0.9660    0.0000 H   0  0  0  0  0  0  0  0  0  0  0  0
    8.8299   -5.3987    0.0000 H   0  0  0  0  0  0  0  0  0  0  0  0
   28.0903    2.1013    0.0000 H   0  0  0  0  0  0  0  0  0  0  0  0
    2.7059    9.5887    0.0000 H   0  0  0  0  0  0  0  0  0  0  0  0
  1 57  2  0  0  0  0
  2 67  2  0  0  0  0
  3 70  2  0  0  0  0
  4 73  2  0  0  0  0
  5 74  2  0  0  0  0
  6 78  2  0  0  0  0
  7 91  2  0  0  0  0
  8 94  2  0  0  0  0
  9 99  1  0  0  0  0
  9237  1  0  0  0  0
 10 99  2  0  0  0  0
 11101  2  0  0  0  0
 12100  2  0  0  0  0
 13106  2  0  0  0  0
 14107  1  0  0  0  0
 14247  1  0  0  0  0
 15108  2  0  0  0  0
 16109  2  0  0  0  0
 17121  1  0  0  0  0
 17254  1  0  0  0  0
 18124  1  0  0  0  0
 18255  1  0  0  0  0
 19 24  1  0  0  0  0
 19 47  1  0  0  0  0
 19 72  1  0  0  0  0
 55 20  1  1  0  0  0
 20 57  1  0  0  0  0
 20167  1  0  0  0  0
 58 21  1  6  0  0  0
 21 67  1  0  0  0  0
 21180  1  0  0  0  0
 53 22  1  1  0  0  0
 22 78  1  0  0  0  0
 22183  1  0  0  0  0
 23 70  1  0  0  0  0
 83 23  1  6  0  0  0
 23194  1  0  0  0  0
 24 29  2  0  0  0  0
 25 73  1  0  0  0  0
 81 25  1  1  0  0  0
 25199  1  0  0  0  0
 26 74  1  0  0  0  0
 77 26  1  6  0  0  0
 26200  1  0  0  0  0
 27 71  1  0  0  0  0
 27 91  1  0  0  0  0
 27204  1  0  0  0  0
 28 85  1  0  0  0  0
 28 86  1  0  0  0  0
 28209  1  0  0  0  0
 29 79  1  0  0  0  0
 76 30  1  1  0  0  0
 30109  1  0  0  0  0
 30216  1  0  0  0  0
 31 89  1  0  0  0  0
 31101  1  0  0  0  0
 31219  1  0  0  0  0
 32 80  1  0  0  0  0
 32113  1  0  0  0  0
 32220  1  0  0  0  0
 33 94  1  0  0  0  0
 96 33  1  6  0  0  0
 33221  1  0  0  0  0
 95 34  1  1  0  0  0
 34106  1  0  0  0  0
 34225  1  0  0  0  0
 35100  1  0  0  0  0
 35233  1  0  0  0  0
 35234  1  0  0  0  0
 36108  1  0  0  0  0
 36245  1  0  0  0  0
 36246  1  0  0  0  0
 37113  1  0  0  0  0
 37248  1  0  0  0  0
 37249  1  0  0  0  0
 38113  2  0  0  0  0
 38252  1  0  0  0  0
 39 40  1  0  0  0  0
 39 41  1  0  0  0  0
 39128  1  0  0  0  0
 39129  1  0  0  0  0
 40 42  1  0  0  0  0
 40130  1  0  0  0  0
 40131  1  0  0  0  0
 41 43  1  0  0  0  0
 41132  1  0  0  0  0
 41133  1  0  0  0  0
 42 44  1  0  0  0  0
 42134  1  0  0  0  0
 42135  1  0  0  0  0
 43 45  1  0  0  0  0
 43136  1  0  0  0  0
 43137  1  0  0  0  0
 44 46  1  0  0  0  0
 44138  1  0  0  0  0
 44139  1  0  0  0  0
 45 48  1  0  0  0  0
 45140  1  0  0  0  0
 45141  1  0  0  0  0
 46 50  1  0  0  0  0
 46142  1  0  0  0  0
 46143  1  0  0  0  0
 47 49  1  6  0  0  0
 47 57  1  0  0  0  0
 47144  1  0  0  0  0
 48 52  1  0  0  0  0
 48147  1  0  0  0  0
 48148  1  0  0  0  0
 49 51  1  0  0  0  0
 49145  1  0  0  0  0
 49146  1  0  0  0  0
 50 54  1  0  0  0  0
 50149  1  0  0  0  0
 50150  1  0  0  0  0
 51 63  1  0  0  0  0
 51 64  1  0  0  0  0
 51151  1  0  0  0  0
 52 61  1  0  0  0  0
 52152  1  0  0  0  0
 52153  1  0  0  0  0
 53 56  1  0  0  0  0
 53 67  1  0  0  0  0
 53154  1  0  0  0  0
 54 66  1  0  0  0  0
 54155  1  0  0  0  0
 54156  1  0  0  0  0
 55 60  1  0  0  0  0
 55 70  1  0  0  0  0
 55157  1  0  0  0  0
 56 59  1  0  0  0  0
 56158  1  0  0  0  0
 56159  1  0  0  0  0
 58 62  1  0  0  0  0
 58 73  1  0  0  0  0
 58160  1  0  0  0  0
 59 65  1  0  0  0  0
 59161  1  0  0  0  0
 59162  1  0  0  0  0
 60 68  1  0  0  0  0
 60163  1  0  0  0  0
 60164  1  0  0  0  0
 61 74  1  0  0  0  0
 61165  1  0  0  0  0
 61166  1  0  0  0  0
 62 69  1  0  0  0  0
 62168  1  0  0  0  0
 62169  1  0  0  0  0
 63170  1  0  0  0  0
 63171  1  0  0  0  0
 63172  1  0  0  0  0
 64173  1  0  0  0  0
 64174  1  0  0  0  0
 64175  1  0  0  0  0
 65 71  1  0  0  0  0
 65176  1  0  0  0  0
 65177  1  0  0  0  0
 66 84  1  0  0  0  0
 66178  1  0  0  0  0
 66179  1  0  0  0  0
 68 80  1  0  0  0  0
 68181  1  0  0  0  0
 68182  1  0  0  0  0
 69 75  1  0  0  0  0
 69 86  2  0  0  0  0
 71184  1  0  0  0  0
 71185  1  0  0  0  0
 72 79  2  0  0  0  0
 72186  1  0  0  0  0
 75 85  1  0  0  0  0
 75 93  2  0  0  0  0
 76 78  1  0  0  0  0
 76 88  1  0  0  0  0
 76187  1  0  0  0  0
 77 82  1  0  0  0  0
 77 99  1  0  0  0  0
 77188  1  0  0  0  0
 79 89  1  0  0  0  0
 80189  1  0  0  0  0
 80190  1  0  0  0  0
 81 92  1  0  0  0  0
 81 94  1  0  0  0  0
 81191  1  0  0  0  0
 82 87  1  0  0  0  0
 82192  1  0  0  0  0
 82193  1  0  0  0  0
 83 90  1  0  0  0  0
 83100  1  0  0  0  0
 83195  1  0  0  0  0
 84196  1  0  0  0  0
 84197  1  0  0  0  0
 84198  1  0  0  0  0
 85 97  2  0  0  0  0
 86201  1  0  0  0  0
 87 91  1  0  0  0  0
 87202  1  0  0  0  0
 87203  1  0  0  0  0
 88 98  1  0  0  0  0
 88205  1  0  0  0  0
 88206  1  0  0  0  0
 89207  1  0  0  0  0
 89208  1  0  0  0  0
 90103  1  0  0  0  0
 90210  1  0  0  0  0
 90211  1  0  0  0  0
 92108  1  0  0  0  0
 92212  1  0  0  0  0
 92213  1  0  0  0  0
 93104  1  0  0  0  0
 93214  1  0  0  0  0
 95101  1  0  0  0  0
 95102  1  0  0  0  0
 95215  1  0  0  0  0
 96106  1  0  0  0  0
 96107  1  0  0  0  0
 96217  1  0  0  0  0
 97105  1  0  0  0  0
 97218  1  0  0  0  0
 98110  2  0  0  0  0
 98111  1  0  0  0  0
102112  1  0  0  0  0
102222  1  0  0  0  0
102223  1  0  0  0  0
103114  2  0  0  0  0
103115  1  0  0  0  0
104105  2  0  0  0  0
104224  1  0  0  0  0
105226  1  0  0  0  0
107227  1  0  0  0  0
107228  1  0  0  0  0
109118  1  0  0  0  0
110116  1  0  0  0  0
110229  1  0  0  0  0
111117  2  0  0  0  0
111230  1  0  0  0  0
112122  2  0  0  0  0
112123  1  0  0  0  0
114119  1  0  0  0  0
114231  1  0  0  0  0
115120  2  0  0  0  0
115232  1  0  0  0  0
116121  2  0  0  0  0
116235  1  0  0  0  0
117121  1  0  0  0  0
117236  1  0  0  0  0
118238  1  0  0  0  0
118239  1  0  0  0  0
118240  1  0  0  0  0
119124  2  0  0  0  0
119241  1  0  0  0  0
120124  1  0  0  0  0
120242  1  0  0  0  0
122125  1  0  0  0  0
122243  1  0  0  0  0
123126  2  0  0  0  0
123244  1  0  0  0  0
125127  2  0  0  0  0
125250  1  0  0  0  0
126127  1  0  0  0  0
126251  1  0  0  0  0
127253  1  0  0  0  0
M  END
> <PUBCHEM_COMPOUND_CID>
118735685

> <PUBCHEM_COMPOUND_CANONICALIZED>
0

> <PUBCHEM_CACTVS_COMPLEXITY>
3450

> <PUBCHEM_CACTVS_HBOND_ACCEPTOR>
21

> <PUBCHEM_CACTVS_HBOND_DONOR>
21

> <PUBCHEM_CACTVS_ROTATABLE_BOND>
62

> <PUBCHEM_CACTVS_SUBSKEYS>
AAADcfB//gAAAAAAAAAAAAAAAAAAAWLAAAAwYMGAAAAAAFgB/AAAHgAYCAAADSzhngY/zvLJkgCqAzX3fACChCSxsiAZ2aG+fJiKdv7C2bOUcAhm9hPY2Aed3+KOoAAAAAACAABAAAAAAAQAAAAAAAAAAA==

> <PUBCHEM_IUPAC_INCHI>
InChI=1S/C89H128N20O18/c1-5-6-7-8-9-10-11-12-13-14-15-16-20-32-78(116)99-68(88(126)127)41-42-77(115)94-43-24-23-30-66(100-83(121)71(98-56(4)111)48-59-35-39-63(113)40-36-59)82(120)104-72(49-60-51-96-65-29-22-21-28-64(60)65)84(122)105-73(50-76(90)114)85(123)106-74(54-110)86(124)103-70(47-57-26-18-17-19-27-57)80(118)97-52-61-53-109(108-107-61)75(45-55(2)3)87(125)101-67(31-25-44-95-89(92)93)81(119)102-69(79(91)117)46-58-33-37-62(112)38-34-58/h17-19,21-22,26-29,33-40,51,53,55,66-75,96,110,112-113H,5-16,20,23-25,30-32,41-50,52,54H2,1-4H3,(H2,90,114)(H2,91,117)(H,94,115)(H,97,118)(H,98,111)(H,99,116)(H,100,121)(H,101,125)(H,102,119)(H,103,124)(H,104,120)(H,105,122)(H,106,123)(H,126,127)(H4,92,93,95)/t66-,67-,68-,69-,70-,71-,72-,73-,74-,75-/m0/s1

> <PUBCHEM_IUPAC_INCHIKEY>
CAISYDPFFGMQNA-AUUUUFBLSA-N

> <PUBCHEM_XLOGP3_AA>
6.5

> <PUBCHEM_EXACT_MASS>
1764.972

> <PUBCHEM_MOLECULAR_FORMULA>
C89H128N20O18

> <PUBCHEM_MOLECULAR_WEIGHT>
1766.125

> <PUBCHEM_OPENEYE_CAN_SMILES>
CCCCCCCCCCCCCCCC(=O)NC(CCC(=O)NCCCCC(C(=O)NC(CC1=CNC2=CC=CC=C21)C(=O)NC(CC(=O)N)C(=O)NC(CO)C(=O)NC(CC3=CC=CC=C3)C(=O)NCC4=CN(N=N4)C(CC(C)C)C(=O)NC(CCCNC(=N)N)C(=O)NC(CC5=CC=C(C=C5)O)C(=O)N)NC(=O)C(CC6=CC=C(C=C6)O)NC(=O)C)C(=O)O

> <PUBCHEM_OPENEYE_ISO_SMILES>
CCCCCCCCCCCCCCCC(=O)N[C@@H](CCC(=O)NCCCC[C@@H](C(=O)N[C@@H](CC1=CNC2=CC=CC=C21)C(=O)N[C@@H](CC(=O)N)C(=O)N[C@@H](CO)C(=O)N[C@@H](CC3=CC=CC=C3)C(=O)NCC4=CN(N=N4)[C@@H](CC(C)C)C(=O)N[C@@H](CCCNC(=N)N)C(=O)N[C@@H](CC5=CC=C(C=C5)O)C(=O)N)NC(=O)[C@H](CC6=CC=C(C=C6)O)NC(=O)C)C(=O)O

> <PUBCHEM_CACTVS_TPSA>
613

> <PUBCHEM_MONOISOTOPIC_WEIGHT>
1764.972

> <PUBCHEM_TOTAL_CHARGE>
0

> <PUBCHEM_HEAVY_ATOM_COUNT>
127

> <PUBCHEM_ATOM_DEF_STEREO_COUNT>
10

> <PUBCHEM_ATOM_UDEF_STEREO_COUNT>
0

> <PUBCHEM_BOND_DEF_STEREO_COUNT>
0

> <PUBCHEM_BOND_UDEF_STEREO_COUNT>
0

> <PUBCHEM_ISOTOPIC_ATOM_COUNT>
0

> <PUBCHEM_COMPONENT_COUNT>
1

> <PUBCHEM_CACTVS_TAUTO_COUNT>
1000

> <PUBCHEM_COORDINATE_TYPE>
1
5
255

> <PUBCHEM_BONDANNOTATIONS>
103  114  8
103  115  8
104  105  8
110  116  8
111  117  8
112  122  8
112  123  8
114  119  8
115  120  8
116  121  8
117  121  8
119  124  8
120  124  8
122  125  8
123  126  8
125  127  8
126  127  8
19  24  8
19  72  8
55  20  5
58  21  6
53  22  5
83  23  6
24  29  8
81  25  5
77  26  6
28  85  8
28  86  8
29  79  8
76  30  5
96  33  6
95  34  5
47  49  6
69  75  8
69  86  8
72  79  8
75  85  8
75  93  8
85  97  8
93  104  8
97  105  8
98  110  8
98  111  8

$$$$
