118735595
  -OEChem-03161706412D

195199  0     1  0  0  0  0  0999 V2000
   17.8740   -4.6328    0.0000 O   0  0  0  0  0  0  0  0  0  0  0  0
    6.9244    3.6801    0.0000 O   0  0  0  0  0  0  0  0  0  0  0  0
   17.2062   -3.8886    0.0000 O   0  0  0  0  0  0  0  0  0  0  0  0
    8.8349    6.7379    0.0000 O   0  0  0  0  0  0  0  0  0  0  0  0
   19.5669   -7.8163    0.0000 O   0  0  0  0  0  0  0  0  0  0  0  0
   11.1956    2.8102    0.0000 O   0  0  0  0  0  0  0  0  0  0  0  0
   15.5133   -0.7051    0.0000 O   0  0  0  0  0  0  0  0  0  0  0  0
   13.1991    0.5773    0.0000 O   0  0  0  0  0  0  0  0  0  0  0  0
   12.2671   -2.2743    0.0000 O   0  0  0  0  0  0  0  0  0  0  0  0
    9.2851   -0.2476    0.0000 O   0  0  0  0  0  0  0  0  0  0  0  0
    7.1420    9.9213    0.0000 O   0  0  0  0  0  0  0  0  0  0  0  0
   16.4918   -0.4989    0.0000 O   0  0  0  0  0  0  0  0  0  0  0  0
   20.2348   -8.5606    0.0000 O   0  0  0  0  0  0  0  0  0  0  0  0
   20.2813  -11.2059    0.0000 O   0  0  0  0  0  0  0  0  0  0  0  0
   25.0808   -4.8841    0.0000 O   0  0  0  0  0  0  0  0  0  0  0  0
    9.7204   12.2348    0.0000 O   0  0  0  0  0  0  0  0  0  0  0  0
   16.5849   -5.7896    0.0000 N   0  0  0  0  0  0  0  0  0  0  0  0
   19.2097   -6.1214    0.0000 N   0  0  0  0  0  0  0  0  0  0  0  0
    8.2136    4.8369    0.0000 N   0  0  0  0  0  0  0  0  0  0  0  0
    9.5492    3.3482    0.0000 N   0  0  0  0  0  0  0  0  0  0  0  0
   15.5598   -3.3505    0.0000 N   0  0  0  0  0  0  0  0  0  0  0  0
   14.6279   -7.8115    0.0000 N   0  0  0  0  0  0  0  0  0  0  0  0
    7.1885    7.2760    0.0000 N   0  0  0  0  0  0  0  0  0  0  0  0
   21.5239   -7.4038    0.0000 N   0  0  0  0  0  0  0  0  0  0  0  0
   14.2242   -1.8619    0.0000 N   0  0  0  0  0  0  0  0  0  0  0  0
   18.6349  -10.6678    0.0000 N   0  0  0  0  0  0  0  0  0  0  0  0
   10.5743    0.9091    0.0000 N   0  0  0  0  0  0  0  0  0  0  0  0
   11.9100   -0.5795    0.0000 N   0  0  0  0  0  0  0  0  0  0  0  0
    4.2530    6.6573    0.0000 N   0  0  0  0  0  0  0  0  0  0  0  0
    5.8528    8.7646    0.0000 N   0  0  0  0  0  0  0  0  0  0  0  0
   18.1382   -1.0370    0.0000 N   0  0  0  0  0  0  0  0  0  0  0  0
    2.6067    7.1954    0.0000 N   0  0  0  0  0  0  0  0  0  0  0  0
    2.9639    5.5006    0.0000 N   0  0  0  0  0  0  0  0  0  0  0  0
   18.2312   -6.3277    0.0000 C   0  0  1  0  0  0  0  0  0  0  0  0
    8.5708    3.1420    0.0000 C   0  0  1  0  0  0  0  0  0  0  0  0
    8.2601    2.1915    0.0000 C   0  0  0  0  0  0  0  0  0  0  0  0
   15.9170   -5.0453    0.0000 C   0  0  1  0  0  0  0  0  0  0  0  0
   17.9206   -7.2782    0.0000 C   0  0  0  0  0  0  0  0  0  0  0  0
    7.2816    1.9853    0.0000 C   0  0  0  0  0  0  0  0  0  0  0  0
   14.9385   -5.2515    0.0000 C   0  0  0  0  0  0  0  0  0  0  0  0
   18.5884   -8.0225    0.0000 C   0  0  0  0  0  0  0  0  0  0  0  0
    7.5457    5.5812    0.0000 C   0  0  1  0  0  0  0  0  0  0  0  0
   17.5634   -5.5834    0.0000 C   0  0  0  0  0  0  0  0  0  0  0  0
    6.5672    5.3749    0.0000 C   0  0  0  0  0  0  0  0  0  0  0  0
   14.6279   -6.2020    0.0000 C   0  0  0  0  0  0  0  0  0  0  0  0
    7.9029    3.8863    0.0000 C   0  0  0  0  0  0  0  0  0  0  0  0
   18.2777   -8.9730    0.0000 C   0  0  0  0  0  0  0  0  0  0  0  0
   16.2277   -4.0948    0.0000 C   0  0  0  0  0  0  0  0  0  0  0  0
    5.8994    6.1192    0.0000 C   0  0  0  0  0  0  0  0  0  0  0  0
   13.6816   -6.5068    0.0000 C   0  0  0  0  0  0  0  0  0  0  0  0
    6.9709    1.0348    0.0000 C   0  0  0  0  0  0  0  0  0  0  0  0
    6.6137    2.7296    0.0000 C   0  0  0  0  0  0  0  0  0  0  0  0
   20.8561   -6.6595    0.0000 C   0  0  2  0  0  0  0  0  0  0  0  0
   15.8705   -2.3999    0.0000 C   0  0  1  0  0  0  0  0  0  0  0  0
    7.8564    6.5317    0.0000 C   0  0  0  0  0  0  0  0  0  0  0  0
   19.8776   -6.8658    0.0000 C   0  0  0  0  0  0  0  0  0  0  0  0
   13.6816   -7.5068    0.0000 C   0  0  0  0  0  0  0  0  0  0  0  0
   18.9456   -9.7173    0.0000 C   0  0  0  0  0  0  0  0  0  0  0  0
   15.2115   -7.0068    0.0000 C   0  0  0  0  0  0  0  0  0  0  0  0
    4.9209    5.9130    0.0000 C   0  0  0  0  0  0  0  0  0  0  0  0
   21.1667   -5.7090    0.0000 C   0  0  0  0  0  0  0  0  0  0  0  0
    7.4992    8.2265    0.0000 C   0  0  1  0  0  0  0  0  0  0  0  0
   10.2171    2.6040    0.0000 C   0  0  0  0  0  0  0  0  0  0  0  0
   16.8490   -2.1937    0.0000 C   0  0  0  0  0  0  0  0  0  0  0  0
   12.8156   -6.0068    0.0000 C   0  0  0  0  0  0  0  0  0  0  0  0
   15.2027   -1.6556    0.0000 C   0  0  0  0  0  0  0  0  0  0  0  0
    9.9064    1.6534    0.0000 C   0  0  0  0  0  0  0  0  0  0  0  0
    8.4777    8.4327    0.0000 C   0  0  0  0  0  0  0  0  0  0  0  0
   13.5563   -1.1176    0.0000 C   0  0  2  0  0  0  0  0  0  0  0  0
   12.8156   -8.0068    0.0000 C   0  0  0  0  0  0  0  0  0  0  0  0
   10.9315   -0.7857    0.0000 C   0  0  1  0  0  0  0  0  0  0  0  0
   22.1452   -5.5028    0.0000 C   0  0  0  0  0  0  0  0  0  0  0  0
   11.9496   -6.5068    0.0000 C   0  0  0  0  0  0  0  0  0  0  0  0
   11.9496   -7.5068    0.0000 C   0  0  0  0  0  0  0  0  0  0  0  0
   10.6208   -1.7362    0.0000 C   0  0  0  0  0  0  0  0  0  0  0  0
   12.5778   -1.3238    0.0000 C   0  0  0  0  0  0  0  0  0  0  0  0
   10.2636   -0.0414    0.0000 C   0  0  0  0  0  0  0  0  0  0  0  0
    6.8314    8.9708    0.0000 C   0  0  0  0  0  0  0  0  0  0  0  0
    8.7884    9.3832    0.0000 C   0  0  0  0  0  0  0  0  0  0  0  0
   13.8670   -0.1670    0.0000 C   0  0  0  0  0  0  0  0  0  0  0  0
   17.1597   -1.2432    0.0000 C   0  0  0  0  0  0  0  0  0  0  0  0
   21.2133   -8.3544    0.0000 C   0  0  0  0  0  0  0  0  0  0  0  0
   22.8131   -6.2471    0.0000 C   0  0  0  0  0  0  0  0  0  0  0  0
   22.4559   -4.5523    0.0000 C   0  0  0  0  0  0  0  0  0  0  0  0
    9.6423   -1.9424    0.0000 C   0  0  0  0  0  0  0  0  0  0  0  0
   19.3028  -11.4121    0.0000 C   0  0  0  0  0  0  0  0  0  0  0  0
    3.2745    6.4511    0.0000 C   0  0  0  0  0  0  0  0  0  0  0  0
    8.1205   10.1275    0.0000 C   0  0  0  0  0  0  0  0  0  0  0  0
    9.7669    9.5895    0.0000 C   0  0  0  0  0  0  0  0  0  0  0  0
   23.7916   -6.0409    0.0000 C   0  0  0  0  0  0  0  0  0  0  0  0
   23.4344   -4.3461    0.0000 C   0  0  0  0  0  0  0  0  0  0  0  0
   21.8811   -9.0987    0.0000 C   0  0  0  0  0  0  0  0  0  0  0  0
   24.1023   -5.0904    0.0000 C   0  0  0  0  0  0  0  0  0  0  0  0
    8.9744   -1.1981    0.0000 C   0  0  0  0  0  0  0  0  0  0  0  0
    9.3316   -2.8930    0.0000 C   0  0  0  0  0  0  0  0  0  0  0  0
   18.9921  -12.3627    0.0000 C   0  0  0  0  0  0  0  0  0  0  0  0
    8.4312   11.0781    0.0000 C   0  0  0  0  0  0  0  0  0  0  0  0
   10.0775   10.5400    0.0000 C   0  0  0  0  0  0  0  0  0  0  0  0
    9.4097   11.2843    0.0000 C   0  0  0  0  0  0  0  0  0  0  0  0
    7.9959   -1.4044    0.0000 C   0  0  0  0  0  0  0  0  0  0  0  0
    8.3531   -3.0992    0.0000 C   0  0  0  0  0  0  0  0  0  0  0  0
    7.6853   -2.3549    0.0000 C   0  0  0  0  0  0  0  0  0  0  0  0
   18.6453   -6.7891    0.0000 H   0  0  0  0  0  0  0  0  0  0  0  0
    8.7634    3.7314    0.0000 H   0  0  0  0  0  0  0  0  0  0  0  0
    8.2806    1.5718    0.0000 H   0  0  0  0  0  0  0  0  0  0  0  0
    8.8739    2.1042    0.0000 H   0  0  0  0  0  0  0  0  0  0  0  0
   15.7244   -5.6346    0.0000 H   0  0  0  0  0  0  0  0  0  0  0  0
   17.3736   -6.9862    0.0000 H   0  0  0  0  0  0  0  0  0  0  0  0
   17.5380   -7.7661    0.0000 H   0  0  0  0  0  0  0  0  0  0  0  0
    7.4742    2.5746    0.0000 H   0  0  0  0  0  0  0  0  0  0  0  0
   14.9180   -4.6318    0.0000 H   0  0  0  0  0  0  0  0  0  0  0  0
   14.3247   -5.1642    0.0000 H   0  0  0  0  0  0  0  0  0  0  0  0
   19.1353   -8.3145    0.0000 H   0  0  0  0  0  0  0  0  0  0  0  0
   18.9710   -7.5346    0.0000 H   0  0  0  0  0  0  0  0  0  0  0  0
    8.1524    5.7090    0.0000 H   0  0  0  0  0  0  0  0  0  0  0  0
   16.3923   -6.3789    0.0000 H   0  0  0  0  0  0  0  0  0  0  0  0
    6.0409    5.0473    0.0000 H   0  0  0  0  0  0  0  0  0  0  0  0
    6.7985    4.7997    0.0000 H   0  0  0  0  0  0  0  0  0  0  0  0
   17.7308   -8.6810    0.0000 H   0  0  0  0  0  0  0  0  0  0  0  0
   17.8952   -9.4609    0.0000 H   0  0  0  0  0  0  0  0  0  0  0  0
   19.4023   -5.5321    0.0000 H   0  0  0  0  0  0  0  0  0  0  0  0
    8.8202    4.9647    0.0000 H   0  0  0  0  0  0  0  0  0  0  0  0
    6.4257    6.4469    0.0000 H   0  0  0  0  0  0  0  0  0  0  0  0
    5.6681    6.6945    0.0000 H   0  0  0  0  0  0  0  0  0  0  0  0
    9.7419    3.9376    0.0000 H   0  0  0  0  0  0  0  0  0  0  0  0
    7.0752    3.1437    0.0000 H   0  0  0  0  0  0  0  0  0  0  0  0
    6.1997    3.1911    0.0000 H   0  0  0  0  0  0  0  0  0  0  0  0
    6.1523    2.3155    0.0000 H   0  0  0  0  0  0  0  0  0  0  0  0
    6.3816    1.2274    0.0000 H   0  0  0  0  0  0  0  0  0  0  0  0
    6.7783    0.4455    0.0000 H   0  0  0  0  0  0  0  0  0  0  0  0
    7.5602    0.8422    0.0000 H   0  0  0  0  0  0  0  0  0  0  0  0
   21.4627   -6.5317    0.0000 H   0  0  0  0  0  0  0  0  0  0  0  0
   15.2638   -2.5278    0.0000 H   0  0  0  0  0  0  0  0  0  0  0  0
   14.9532   -3.4783    0.0000 H   0  0  0  0  0  0  0  0  0  0  0  0
   19.4925  -10.0093    0.0000 H   0  0  0  0  0  0  0  0  0  0  0  0
   19.3281   -9.2294    0.0000 H   0  0  0  0  0  0  0  0  0  0  0  0
   15.8315   -7.0068    0.0000 H   0  0  0  0  0  0  0  0  0  0  0  0
    4.3945    5.5854    0.0000 H   0  0  0  0  0  0  0  0  0  0  0  0
    5.1521    5.3378    0.0000 H   0  0  0  0  0  0  0  0  0  0  0  0
   14.8205   -8.4008    0.0000 H   0  0  0  0  0  0  0  0  0  0  0  0
   21.1462   -5.0893    0.0000 H   0  0  0  0  0  0  0  0  0  0  0  0
   20.5529   -5.6217    0.0000 H   0  0  0  0  0  0  0  0  0  0  0  0
    6.8925    8.0986    0.0000 H   0  0  0  0  0  0  0  0  0  0  0  0
    6.5819    7.1481    0.0000 H   0  0  0  0  0  0  0  0  0  0  0  0
   16.8696   -2.8134    0.0000 H   0  0  0  0  0  0  0  0  0  0  0  0
   17.4628   -2.2811    0.0000 H   0  0  0  0  0  0  0  0  0  0  0  0
   12.8156   -5.3868    0.0000 H   0  0  0  0  0  0  0  0  0  0  0  0
    8.4983    7.8131    0.0000 H   0  0  0  0  0  0  0  0  0  0  0  0
    9.0915    8.3454    0.0000 H   0  0  0  0  0  0  0  0  0  0  0  0
    9.3595    1.9454    0.0000 H   0  0  0  0  0  0  0  0  0  0  0  0
    9.5239    1.1655    0.0000 H   0  0  0  0  0  0  0  0  0  0  0  0
   13.3637   -1.7069    0.0000 H   0  0  0  0  0  0  0  0  0  0  0  0
   12.8156   -8.6268    0.0000 H   0  0  0  0  0  0  0  0  0  0  0  0
   11.1241   -0.1964    0.0000 H   0  0  0  0  0  0  0  0  0  0  0  0
   22.1306   -7.2760    0.0000 H   0  0  0  0  0  0  0  0  0  0  0  0
   14.0315   -2.4512    0.0000 H   0  0  0  0  0  0  0  0  0  0  0  0
   18.0282  -10.7957    0.0000 H   0  0  0  0  0  0  0  0  0  0  0  0
   11.4127   -6.1968    0.0000 H   0  0  0  0  0  0  0  0  0  0  0  0
   10.6414   -2.3559    0.0000 H   0  0  0  0  0  0  0  0  0  0  0  0
   11.2346   -1.8236    0.0000 H   0  0  0  0  0  0  0  0  0  0  0  0
   11.4127   -7.8168    0.0000 H   0  0  0  0  0  0  0  0  0  0  0  0
   11.1810    1.0370    0.0000 H   0  0  0  0  0  0  0  0  0  0  0  0
   12.1026    0.0098    0.0000 H   0  0  0  0  0  0  0  0  0  0  0  0
    4.4456    7.2466    0.0000 H   0  0  0  0  0  0  0  0  0  0  0  0
   14.4139   -0.4591    0.0000 H   0  0  0  0  0  0  0  0  0  0  0  0
   14.2495    0.3209    0.0000 H   0  0  0  0  0  0  0  0  0  0  0  0
   22.6205   -6.8364    0.0000 H   0  0  0  0  0  0  0  0  0  0  0  0
   22.0418   -4.0908    0.0000 H   0  0  0  0  0  0  0  0  0  0  0  0
    7.5138    9.9997    0.0000 H   0  0  0  0  0  0  0  0  0  0  0  0
   10.1809    9.1280    0.0000 H   0  0  0  0  0  0  0  0  0  0  0  0
   24.2057   -6.5023    0.0000 H   0  0  0  0  0  0  0  0  0  0  0  0
   23.6270   -3.7567    0.0000 H   0  0  0  0  0  0  0  0  0  0  0  0
    5.4388    9.2261    0.0000 H   0  0  0  0  0  0  0  0  0  0  0  0
    5.6602    8.1753    0.0000 H   0  0  0  0  0  0  0  0  0  0  0  0
   21.4196   -9.5127    0.0000 H   0  0  0  0  0  0  0  0  0  0  0  0
   22.2952   -9.5601    0.0000 H   0  0  0  0  0  0  0  0  0  0  0  0
   22.3426   -8.6846    0.0000 H   0  0  0  0  0  0  0  0  0  0  0  0
   18.3308   -0.4477    0.0000 H   0  0  0  0  0  0  0  0  0  0  0  0
   18.5522   -1.4984    0.0000 H   0  0  0  0  0  0  0  0  0  0  0  0
    9.1671   -0.6088    0.0000 H   0  0  0  0  0  0  0  0  0  0  0  0
    9.7457   -3.3544    0.0000 H   0  0  0  0  0  0  0  0  0  0  0  0
   18.4028  -12.1700    0.0000 H   0  0  0  0  0  0  0  0  0  0  0  0
   18.7995  -12.9520    0.0000 H   0  0  0  0  0  0  0  0  0  0  0  0
   19.5814  -12.5553    0.0000 H   0  0  0  0  0  0  0  0  0  0  0  0
    8.0171   11.5395    0.0000 H   0  0  0  0  0  0  0  0  0  0  0  0
   10.6842   10.6678    0.0000 H   0  0  0  0  0  0  0  0  0  0  0  0
   13.3917    1.1666    0.0000 H   0  0  0  0  0  0  0  0  0  0  0  0
    7.5819   -0.9429    0.0000 H   0  0  0  0  0  0  0  0  0  0  0  0
    8.1605   -3.6885    0.0000 H   0  0  0  0  0  0  0  0  0  0  0  0
    2.0000    7.0676    0.0000 H   0  0  0  0  0  0  0  0  0  0  0  0
    2.7993    7.7847    0.0000 H   0  0  0  0  0  0  0  0  0  0  0  0
    7.0786   -2.4827    0.0000 H   0  0  0  0  0  0  0  0  0  0  0  0
    2.3572    5.3727    0.0000 H   0  0  0  0  0  0  0  0  0  0  0  0
   25.4948   -5.3456    0.0000 H   0  0  0  0  0  0  0  0  0  0  0  0
   10.3270   12.3627    0.0000 H   0  0  0  0  0  0  0  0  0  0  0  0
  1 43  2  0  0  0  0
  2 46  2  0  0  0  0
  3 48  2  0  0  0  0
  4 55  2  0  0  0  0
  5 56  2  0  0  0  0
  6 63  2  0  0  0  0
  7 66  2  0  0  0  0
  8 80  1  0  0  0  0
  8187  1  0  0  0  0
  9 76  2  0  0  0  0
 10 77  2  0  0  0  0
 11 78  2  0  0  0  0
 12 81  2  0  0  0  0
 13 82  2  0  0  0  0
 14 86  2  0  0  0  0
 15 93  1  0  0  0  0
 15194  1  0  0  0  0
 16 99  1  0  0  0  0
 16195  1  0  0  0  0
 37 17  1  1  0  0  0
 17 43  1  0  0  0  0
 17116  1  0  0  0  0
 34 18  1  1  0  0  0
 18 56  1  0  0  0  0
 18121  1  0  0  0  0
 42 19  1  1  0  0  0
 19 46  1  0  0  0  0
 19122  1  0  0  0  0
 35 20  1  1  0  0  0
 20 63  1  0  0  0  0
 20125  1  0  0  0  0
 21 48  1  0  0  0  0
 54 21  1  6  0  0  0
 21134  1  0  0  0  0
 22 57  1  0  0  0  0
 22 59  1  0  0  0  0
 22140  1  0  0  0  0
 23 55  1  0  0  0  0
 62 23  1  6  0  0  0
 23144  1  0  0  0  0
 53 24  1  6  0  0  0
 24 82  1  0  0  0  0
 24155  1  0  0  0  0
 25 66  1  0  0  0  0
 69 25  1  6  0  0  0
 25156  1  0  0  0  0
 26 58  1  0  0  0  0
 26 86  1  0  0  0  0
 26157  1  0  0  0  0
 27 67  1  0  0  0  0
 27 77  1  0  0  0  0
 27162  1  0  0  0  0
 71 28  1  1  0  0  0
 28 76  1  0  0  0  0
 28163  1  0  0  0  0
 29 60  1  0  0  0  0
 29 87  1  0  0  0  0
 29164  1  0  0  0  0
 30 78  1  0  0  0  0
 30173  1  0  0  0  0
 30174  1  0  0  0  0
 31 81  1  0  0  0  0
 31178  1  0  0  0  0
 31179  1  0  0  0  0
 32 87  1  0  0  0  0
 32190  1  0  0  0  0
 32191  1  0  0  0  0
 33 87  2  0  0  0  0
 33193  1  0  0  0  0
 34 38  1  0  0  0  0
 34 43  1  0  0  0  0
 34103  1  0  0  0  0
 35 36  1  0  0  0  0
 35 46  1  0  0  0  0
 35104  1  0  0  0  0
 36 39  1  0  0  0  0
 36105  1  0  0  0  0
 36106  1  0  0  0  0
 37 40  1  0  0  0  0
 37 48  1  0  0  0  0
 37107  1  0  0  0  0
 38 41  1  0  0  0  0
 38108  1  0  0  0  0
 38109  1  0  0  0  0
 39 51  1  0  0  0  0
 39 52  1  0  0  0  0
 39110  1  0  0  0  0
 40 45  1  0  0  0  0
 40111  1  0  0  0  0
 40112  1  0  0  0  0
 41 47  1  0  0  0  0
 41113  1  0  0  0  0
 41114  1  0  0  0  0
 42 44  1  0  0  0  0
 42 55  1  0  0  0  0
 42115  1  0  0  0  0
 44 49  1  0  0  0  0
 44117  1  0  0  0  0
 44118  1  0  0  0  0
 45 50  1  0  0  0  0
 45 59  2  0  0  0  0
 47 58  1  0  0  0  0
 47119  1  0  0  0  0
 47120  1  0  0  0  0
 49 60  1  0  0  0  0
 49123  1  0  0  0  0
 49124  1  0  0  0  0
 50 57  1  0  0  0  0
 50 65  2  0  0  0  0
 51129  1  0  0  0  0
 51130  1  0  0  0  0
 51131  1  0  0  0  0
 52126  1  0  0  0  0
 52127  1  0  0  0  0
 52128  1  0  0  0  0
 53 56  1  0  0  0  0
 53 61  1  0  0  0  0
 53132  1  0  0  0  0
 54 64  1  0  0  0  0
 54 66  1  0  0  0  0
 54133  1  0  0  0  0
 57 70  2  0  0  0  0
 58135  1  0  0  0  0
 58136  1  0  0  0  0
 59137  1  0  0  0  0
 60138  1  0  0  0  0
 60139  1  0  0  0  0
 61 72  1  0  0  0  0
 61141  1  0  0  0  0
 61142  1  0  0  0  0
 62 68  1  0  0  0  0
 62 78  1  0  0  0  0
 62143  1  0  0  0  0
 63 67  1  0  0  0  0
 64 81  1  0  0  0  0
 64145  1  0  0  0  0
 64146  1  0  0  0  0
 65 73  1  0  0  0  0
 65147  1  0  0  0  0
 67150  1  0  0  0  0
 67151  1  0  0  0  0
 68 79  1  0  0  0  0
 68148  1  0  0  0  0
 68149  1  0  0  0  0
 69 76  1  0  0  0  0
 69 80  1  0  0  0  0
 69152  1  0  0  0  0
 70 74  1  0  0  0  0
 70153  1  0  0  0  0
 71 75  1  0  0  0  0
 71 77  1  0  0  0  0
 71154  1  0  0  0  0
 72 83  2  0  0  0  0
 72 84  1  0  0  0  0
 73 74  2  0  0  0  0
 73158  1  0  0  0  0
 74161  1  0  0  0  0
 75 85  1  0  0  0  0
 75159  1  0  0  0  0
 75160  1  0  0  0  0
 79 88  2  0  0  0  0
 79 89  1  0  0  0  0
 80165  1  0  0  0  0
 80166  1  0  0  0  0
 82 92  1  0  0  0  0
 83 90  1  0  0  0  0
 83167  1  0  0  0  0
 84 91  2  0  0  0  0
 84168  1  0  0  0  0
 85 94  2  0  0  0  0
 85 95  1  0  0  0  0
 86 96  1  0  0  0  0
 88 97  1  0  0  0  0
 88169  1  0  0  0  0
 89 98  2  0  0  0  0
 89170  1  0  0  0  0
 90 93  2  0  0  0  0
 90171  1  0  0  0  0
 91 93  1  0  0  0  0
 91172  1  0  0  0  0
 92175  1  0  0  0  0
 92176  1  0  0  0  0
 92177  1  0  0  0  0
 94100  1  0  0  0  0
 94180  1  0  0  0  0
 95101  2  0  0  0  0
 95181  1  0  0  0  0
 96182  1  0  0  0  0
 96183  1  0  0  0  0
 96184  1  0  0  0  0
 97 99  2  0  0  0  0
 97185  1  0  0  0  0
 98 99  1  0  0  0  0
 98186  1  0  0  0  0
100102  2  0  0  0  0
100188  1  0  0  0  0
101102  1  0  0  0  0
101189  1  0  0  0  0
102192  1  0  0  0  0
M  END
> <PUBCHEM_COMPOUND_CID>
118735595

> <PUBCHEM_COMPOUND_CANONICALIZED>
0

> <PUBCHEM_CACTVS_COMPLEXITY>
2810

> <PUBCHEM_CACTVS_HBOND_ACCEPTOR>
17

> <PUBCHEM_CACTVS_HBOND_DONOR>
20

> <PUBCHEM_CACTVS_ROTATABLE_BOND>
43

> <PUBCHEM_CACTVS_SUBSKEYS>
AAADcfB//gAAAAAAAAAAAAAAAAAAAWAAAAAwYMGAAAAAAFgB9AAAHgAQCAAADSzhngY/xvLJkgCoAzV3dACCgCCxIiAJ2aG+bJiKdv7C2bOUcAhm9hPY2AedyeCOoAAAAAACAABAAAAAAAQAAAAAAAAAAA==

> <PUBCHEM_IUPAC_INCHI>
InChI=1S/C69H93N17O16/c1-38(2)29-52(64(98)81-50(18-12-28-75-69(72)73)62(96)82-51(60(71)94)30-42-19-23-45(90)24-20-42)79-59(93)36-77-61(95)53(31-41-13-6-5-7-14-41)83-68(102)57(37-87)86-67(101)56(34-58(70)92)85-66(100)55(33-44-35-76-48-16-9-8-15-47(44)48)84-63(97)49(17-10-11-27-74-39(3)88)80-65(99)54(78-40(4)89)32-43-21-25-46(91)26-22-43/h5-9,13-16,19-26,35,38,49-57,76,87,90-91H,10-12,17-18,27-34,36-37H2,1-4H3,(H2,70,92)(H2,71,94)(H,74,88)(H,77,95)(H,78,89)(H,79,93)(H,80,99)(H,81,98)(H,82,96)(H,83,102)(H,84,97)(H,85,100)(H,86,101)(H4,72,73,75)/t49-,50-,51-,52-,53-,54-,55-,56-,57-/m0/s1

> <PUBCHEM_IUPAC_INCHIKEY>
FKMXXGBASRGAEA-WIVDLTSQSA-N

> <PUBCHEM_XLOGP3_AA>
-0.1

> <PUBCHEM_EXACT_MASS>
1415.699

> <PUBCHEM_MOLECULAR_FORMULA>
C69H93N17O16

> <PUBCHEM_MOLECULAR_WEIGHT>
1416.606

> <PUBCHEM_OPENEYE_CAN_SMILES>
CC(C)CC(C(=O)NC(CCCNC(=N)N)C(=O)NC(CC1=CC=C(C=C1)O)C(=O)N)NC(=O)CNC(=O)C(CC2=CC=CC=C2)NC(=O)C(CO)NC(=O)C(CC(=O)N)NC(=O)C(CC3=CNC4=CC=CC=C43)NC(=O)C(CCCCNC(=O)C)NC(=O)C(CC5=CC=C(C=C5)O)NC(=O)C

> <PUBCHEM_OPENEYE_ISO_SMILES>
CC(C)C[C@@H](C(=O)N[C@@H](CCCNC(=N)N)C(=O)N[C@@H](CC1=CC=C(C=C1)O)C(=O)N)NC(=O)CNC(=O)[C@H](CC2=CC=CC=C2)NC(=O)[C@H](CO)NC(=O)[C@H](CC(=O)N)NC(=O)[C@H](CC3=CNC4=CC=CC=C43)NC(=O)[C@H](CCCCNC(=O)C)NC(=O)[C@H](CC5=CC=C(C=C5)O)NC(=O)C

> <PUBCHEM_CACTVS_TPSA>
545

> <PUBCHEM_MONOISOTOPIC_WEIGHT>
1415.699

> <PUBCHEM_TOTAL_CHARGE>
0

> <PUBCHEM_HEAVY_ATOM_COUNT>
102

> <PUBCHEM_ATOM_DEF_STEREO_COUNT>
9

> <PUBCHEM_ATOM_UDEF_STEREO_COUNT>
0

> <PUBCHEM_BOND_DEF_STEREO_COUNT>
0

> <PUBCHEM_BOND_UDEF_STEREO_COUNT>
0

> <PUBCHEM_ISOTOPIC_ATOM_COUNT>
0

> <PUBCHEM_COMPONENT_COUNT>
1

> <PUBCHEM_CACTVS_TAUTO_COUNT>
1000

> <PUBCHEM_COORDINATE_TYPE>
1
5
255

> <PUBCHEM_BONDANNOTATIONS>
100  102  8
101  102  8
37  17  5
34  18  5
42  19  5
35  20  5
54  21  6
22  57  8
22  59  8
62  23  6
53  24  6
69  25  6
71  28  5
45  50  8
45  59  8
50  57  8
50  65  8
57  70  8
65  73  8
70  74  8
72  83  8
72  84  8
73  74  8
79  88  8
79  89  8
83  90  8
84  91  8
85  94  8
85  95  8
88  97  8
89  98  8
90  93  8
91  93  8
94  100  8
95  101  8
97  99  8
98  99  8

$$$$
