118735679
  -OEChem-03161706412D

195199  0     1  0  0  0  0  0999 V2000
    6.3246   -1.3630    0.0000 O   0  0  0  0  0  0  0  0  0  0  0  0
   18.3774    2.0622    0.0000 O   0  0  0  0  0  0  0  0  0  0  0  0
    9.5708    0.2062    0.0000 O   0  0  0  0  0  0  0  0  0  0  0  0
   20.0702   -1.1212    0.0000 O   0  0  0  0  0  0  0  0  0  0  0  0
    4.6318    1.8205    0.0000 O   0  0  0  0  0  0  0  0  0  0  0  0
   15.1312    0.4930    0.0000 O   0  0  0  0  0  0  0  0  0  0  0  0
   12.1957   -0.1256    0.0000 O   0  0  0  0  0  0  0  0  0  0  0  0
   11.2637   -2.9772    0.0000 O   0  0  0  0  0  0  0  0  0  0  0  0
   14.8670   -3.1028    0.0000 O   0  0  0  0  0  0  0  0  0  0  0  0
    6.5422    4.8783    0.0000 O   0  0  0  0  0  0  0  0  0  0  0  0
   23.6736   -1.2469    0.0000 O   0  0  0  0  0  0  0  0  0  0  0  0
    3.9639    2.5648    0.0000 O   0  0  0  0  0  0  0  0  0  0  0  0
   10.3317   -5.8288    0.0000 O   0  0  0  0  0  0  0  0  0  0  0  0
   24.3879   -4.6365    0.0000 O   0  0  0  0  0  0  0  0  0  0  0  0
    6.8529    5.8288    0.0000 O   0  0  0  0  0  0  0  0  0  0  0  0
   12.7705    4.4207    0.0000 O   0  0  0  0  0  0  0  0  0  0  0  0
    7.6138   -0.2062    0.0000 N   0  0  0  0  0  0  0  0  0  0  0  0
   18.7345    0.3674    0.0000 N   0  0  0  0  0  0  0  0  0  0  0  0
    6.2781    1.2824    0.0000 N   0  0  0  0  0  0  0  0  0  0  0  0
   16.7775   -0.0451    0.0000 N   0  0  0  0  0  0  0  0  0  0  0  0
    9.9280   -1.4886    0.0000 N   0  0  0  0  0  0  0  0  0  0  0  0
    4.6783   -2.4343    0.0000 N   0  0  0  0  0  0  0  0  0  0  0  0
   21.3594    0.0355    0.0000 N   0  0  0  0  0  0  0  0  0  0  0  0
   12.5528   -1.8205    0.0000 N   0  0  0  0  0  0  0  0  0  0  0  0
    6.8994    3.1834    0.0000 N   0  0  0  0  0  0  0  0  0  0  0  0
   14.5098   -1.4080    0.0000 N   0  0  0  0  0  0  0  0  0  0  0  0
    8.6853   -5.2907    0.0000 N   0  0  0  0  0  0  0  0  0  0  0  0
   22.2914    2.8871    0.0000 N   0  0  0  0  0  0  0  0  0  0  0  0
    8.4993    5.2907    0.0000 N   0  0  0  0  0  0  0  0  0  0  0  0
   23.3164    0.4479    0.0000 N   0  0  0  0  0  0  0  0  0  0  0  0
    3.6067    4.2596    0.0000 N   0  0  0  0  0  0  0  0  0  0  0  0
   23.5805    4.0438    0.0000 N   0  0  0  0  0  0  0  0  0  0  0  0
   21.9342    4.5819    0.0000 N   0  0  0  0  0  0  0  0  0  0  0  0
    8.2816   -0.9505    0.0000 C   0  0  1  0  0  0  0  0  0  0  0  0
   17.0882    0.9054    0.0000 C   0  0  1  0  0  0  0  0  0  0  0  0
   16.4203    1.6498    0.0000 C   0  0  0  0  0  0  0  0  0  0  0  0
    5.9674    0.3319    0.0000 C   0  0  1  0  0  0  0  0  0  0  0  0
    7.9710   -1.9010    0.0000 C   0  0  0  0  0  0  0  0  0  0  0  0
   16.7310    2.6003    0.0000 C   0  0  0  0  0  0  0  0  0  0  0  0
    4.9889    0.1256    0.0000 C   0  0  0  0  0  0  0  0  0  0  0  0
    8.6388   -2.6453    0.0000 C   0  0  0  0  0  0  0  0  0  0  0  0
   19.7130    0.5736    0.0000 C   0  0  1  0  0  0  0  0  0  0  0  0
    6.6353   -0.4124    0.0000 C   0  0  0  0  0  0  0  0  0  0  0  0
   20.0237    1.5241    0.0000 C   0  0  0  0  0  0  0  0  0  0  0  0
    4.6783   -0.8249    0.0000 C   0  0  0  0  0  0  0  0  0  0  0  0
   18.0667    1.1117    0.0000 C   0  0  0  0  0  0  0  0  0  0  0  0
    8.3282   -3.5959    0.0000 C   0  0  0  0  0  0  0  0  0  0  0  0
    9.2601   -0.7443    0.0000 C   0  0  0  0  0  0  0  0  0  0  0  0
   21.0022    1.7303    0.0000 C   0  0  0  0  0  0  0  0  0  0  0  0
    3.7320   -1.1296    0.0000 C   0  0  0  0  0  0  0  0  0  0  0  0
   16.0632    3.3446    0.0000 C   0  0  0  0  0  0  0  0  0  0  0  0
   17.7095    2.8065    0.0000 C   0  0  0  0  0  0  0  0  0  0  0  0
   10.9065   -1.2824    0.0000 C   0  0  2  0  0  0  0  0  0  0  0  0
   20.3809   -0.1707    0.0000 C   0  0  0  0  0  0  0  0  0  0  0  0
    5.9209    2.9772    0.0000 C   0  0  2  0  0  0  0  0  0  0  0  0
    8.9960   -4.3402    0.0000 C   0  0  0  0  0  0  0  0  0  0  0  0
    3.7320   -2.1296    0.0000 C   0  0  0  0  0  0  0  0  0  0  0  0
    5.2619   -1.6296    0.0000 C   0  0  0  0  0  0  0  0  0  0  0  0
    5.6103    2.0267    0.0000 C   0  0  0  0  0  0  0  0  0  0  0  0
   21.3129    2.6808    0.0000 C   0  0  0  0  0  0  0  0  0  0  0  0
   13.2207   -2.5648    0.0000 C   0  0  1  0  0  0  0  0  0  0  0  0
   22.0272   -0.7088    0.0000 C   0  0  1  0  0  0  0  0  0  0  0  0
   15.7990   -0.2513    0.0000 C   0  0  0  0  0  0  0  0  0  0  0  0
   11.5743   -2.0267    0.0000 C   0  0  0  0  0  0  0  0  0  0  0  0
    5.2531    3.7215    0.0000 C   0  0  0  0  0  0  0  0  0  0  0  0
    2.8660   -0.6296    0.0000 C   0  0  0  0  0  0  0  0  0  0  0  0
   15.4884   -1.2018    0.0000 C   0  0  0  0  0  0  0  0  0  0  0  0
   11.2171   -0.3319    0.0000 C   0  0  0  0  0  0  0  0  0  0  0  0
   12.9100   -3.5153    0.0000 C   0  0  0  0  0  0  0  0  0  0  0  0
   21.7166   -1.6593    0.0000 C   0  0  0  0  0  0  0  0  0  0  0  0
    2.8660   -2.6296    0.0000 C   0  0  0  0  0  0  0  0  0  0  0  0
   14.1992   -2.3586    0.0000 C   0  0  0  0  0  0  0  0  0  0  0  0
    8.1886    4.3402    0.0000 C   0  0  2  0  0  0  0  0  0  0  0  0
    2.0000   -1.1296    0.0000 C   0  0  0  0  0  0  0  0  0  0  0  0
    7.2101    4.1339    0.0000 C   0  0  0  0  0  0  0  0  0  0  0  0
    2.0000   -2.1296    0.0000 C   0  0  0  0  0  0  0  0  0  0  0  0
   23.0057   -0.5026    0.0000 C   0  0  0  0  0  0  0  0  0  0  0  0
   13.5779   -4.2596    0.0000 C   0  0  0  0  0  0  0  0  0  0  0  0
   22.3844   -2.4036    0.0000 C   0  0  0  0  0  0  0  0  0  0  0  0
    8.8564    3.5959    0.0000 C   0  0  0  0  0  0  0  0  0  0  0  0
    4.2746    3.5153    0.0000 C   0  0  0  0  0  0  0  0  0  0  0  0
    9.3532   -6.0350    0.0000 C   0  0  0  0  0  0  0  0  0  0  0  0
    9.8349    3.8021    0.0000 C   0  0  0  0  0  0  0  0  0  0  0  0
   22.6020    3.8376    0.0000 C   0  0  0  0  0  0  0  0  0  0  0  0
   13.2672   -5.2101    0.0000 C   0  0  0  0  0  0  0  0  0  0  0  0
   14.5564   -4.0534    0.0000 C   0  0  0  0  0  0  0  0  0  0  0  0
   23.3629   -2.1974    0.0000 C   0  0  0  0  0  0  0  0  0  0  0  0
   22.0738   -3.3541    0.0000 C   0  0  0  0  0  0  0  0  0  0  0  0
    9.0425   -6.9855    0.0000 C   0  0  0  0  0  0  0  0  0  0  0  0
    7.8314    6.0350    0.0000 C   0  0  0  0  0  0  0  0  0  0  0  0
   24.0308   -2.9417    0.0000 C   0  0  0  0  0  0  0  0  0  0  0  0
   22.7416   -4.0984    0.0000 C   0  0  0  0  0  0  0  0  0  0  0  0
   13.9350   -5.9544    0.0000 C   0  0  0  0  0  0  0  0  0  0  0  0
   15.2242   -4.7977    0.0000 C   0  0  0  0  0  0  0  0  0  0  0  0
   10.5028    3.0578    0.0000 C   0  0  0  0  0  0  0  0  0  0  0  0
   10.1456    4.7526    0.0000 C   0  0  0  0  0  0  0  0  0  0  0  0
   23.7201   -3.8922    0.0000 C   0  0  0  0  0  0  0  0  0  0  0  0
   14.9135   -5.7482    0.0000 C   0  0  0  0  0  0  0  0  0  0  0  0
   11.4813    3.2640    0.0000 C   0  0  0  0  0  0  0  0  0  0  0  0
   11.1241    4.9588    0.0000 C   0  0  0  0  0  0  0  0  0  0  0  0
    8.1421    6.9855    0.0000 C   0  0  0  0  0  0  0  0  0  0  0  0
   11.7920    4.2145    0.0000 C   0  0  0  0  0  0  0  0  0  0  0  0
    8.4742   -0.3612    0.0000 H   0  0  0  0  0  0  0  0  0  0  0  0
   16.4815    0.7776    0.0000 H   0  0  0  0  0  0  0  0  0  0  0  0
   15.8734    1.9418    0.0000 H   0  0  0  0  0  0  0  0  0  0  0  0
   16.0378    1.1618    0.0000 H   0  0  0  0  0  0  0  0  0  0  0  0
    5.5534    0.7933    0.0000 H   0  0  0  0  0  0  0  0  0  0  0  0
    7.4240   -1.6090    0.0000 H   0  0  0  0  0  0  0  0  0  0  0  0
    7.5884   -2.3890    0.0000 H   0  0  0  0  0  0  0  0  0  0  0  0
   17.1451    2.1388    0.0000 H   0  0  0  0  0  0  0  0  0  0  0  0
    4.9684    0.7453    0.0000 H   0  0  0  0  0  0  0  0  0  0  0  0
    4.3751    0.2130    0.0000 H   0  0  0  0  0  0  0  0  0  0  0  0
    9.1857   -2.9374    0.0000 H   0  0  0  0  0  0  0  0  0  0  0  0
    9.0214   -2.1574    0.0000 H   0  0  0  0  0  0  0  0  0  0  0  0
   19.5204   -0.0157    0.0000 H   0  0  0  0  0  0  0  0  0  0  0  0
    7.8064    0.3831    0.0000 H   0  0  0  0  0  0  0  0  0  0  0  0
   20.0031    2.1438    0.0000 H   0  0  0  0  0  0  0  0  0  0  0  0
   19.4099    1.6114    0.0000 H   0  0  0  0  0  0  0  0  0  0  0  0
    7.7812   -3.3038    0.0000 H   0  0  0  0  0  0  0  0  0  0  0  0
    7.9456   -4.0838    0.0000 H   0  0  0  0  0  0  0  0  0  0  0  0
   18.5419   -0.2220    0.0000 H   0  0  0  0  0  0  0  0  0  0  0  0
    6.8848    1.4102    0.0000 H   0  0  0  0  0  0  0  0  0  0  0  0
   17.1916   -0.5065    0.0000 H   0  0  0  0  0  0  0  0  0  0  0  0
   21.0228    1.1107    0.0000 H   0  0  0  0  0  0  0  0  0  0  0  0
   21.6160    1.6430    0.0000 H   0  0  0  0  0  0  0  0  0  0  0  0
   17.8374    2.1998    0.0000 H   0  0  0  0  0  0  0  0  0  0  0  0
   18.3162    2.9343    0.0000 H   0  0  0  0  0  0  0  0  0  0  0  0
   17.5817    3.4132    0.0000 H   0  0  0  0  0  0  0  0  0  0  0  0
   16.5246    3.7586    0.0000 H   0  0  0  0  0  0  0  0  0  0  0  0
   15.6491    3.8060    0.0000 H   0  0  0  0  0  0  0  0  0  0  0  0
   15.6017    2.9305    0.0000 H   0  0  0  0  0  0  0  0  0  0  0  0
   10.7139   -1.8717    0.0000 H   0  0  0  0  0  0  0  0  0  0  0  0
    9.7354   -2.0779    0.0000 H   0  0  0  0  0  0  0  0  0  0  0  0
    6.1135    3.5665    0.0000 H   0  0  0  0  0  0  0  0  0  0  0  0
    9.5429   -4.6322    0.0000 H   0  0  0  0  0  0  0  0  0  0  0  0
    9.3786   -3.8523    0.0000 H   0  0  0  0  0  0  0  0  0  0  0  0
    5.8819   -1.6296    0.0000 H   0  0  0  0  0  0  0  0  0  0  0  0
   21.2923    3.3005    0.0000 H   0  0  0  0  0  0  0  0  0  0  0  0
   20.6991    2.7682    0.0000 H   0  0  0  0  0  0  0  0  0  0  0  0
   12.6140   -2.6926    0.0000 H   0  0  0  0  0  0  0  0  0  0  0  0
    4.8709   -3.0237    0.0000 H   0  0  0  0  0  0  0  0  0  0  0  0
   21.4206   -0.8367    0.0000 H   0  0  0  0  0  0  0  0  0  0  0  0
   21.5520    0.6248    0.0000 H   0  0  0  0  0  0  0  0  0  0  0  0
    5.7794    4.0492    0.0000 H   0  0  0  0  0  0  0  0  0  0  0  0
    5.0218    4.2968    0.0000 H   0  0  0  0  0  0  0  0  0  0  0  0
    2.8660   -0.0096    0.0000 H   0  0  0  0  0  0  0  0  0  0  0  0
   15.5089   -1.8215    0.0000 H   0  0  0  0  0  0  0  0  0  0  0  0
   16.1022   -1.2892    0.0000 H   0  0  0  0  0  0  0  0  0  0  0  0
   11.1966    0.2878    0.0000 H   0  0  0  0  0  0  0  0  0  0  0  0
   10.6033   -0.2445    0.0000 H   0  0  0  0  0  0  0  0  0  0  0  0
   12.7454   -1.2311    0.0000 H   0  0  0  0  0  0  0  0  0  0  0  0
   12.3631   -3.2233    0.0000 H   0  0  0  0  0  0  0  0  0  0  0  0
   12.5275   -4.0032    0.0000 H   0  0  0  0  0  0  0  0  0  0  0  0
    7.3135    2.7220    0.0000 H   0  0  0  0  0  0  0  0  0  0  0  0
   21.1696   -1.3673    0.0000 H   0  0  0  0  0  0  0  0  0  0  0  0
   21.3340   -2.1472    0.0000 H   0  0  0  0  0  0  0  0  0  0  0  0
    2.8660   -3.2496    0.0000 H   0  0  0  0  0  0  0  0  0  0  0  0
   14.0958   -0.9466    0.0000 H   0  0  0  0  0  0  0  0  0  0  0  0
    8.0787   -5.4185    0.0000 H   0  0  0  0  0  0  0  0  0  0  0  0
    7.7745    4.8016    0.0000 H   0  0  0  0  0  0  0  0  0  0  0  0
    1.4631   -0.8196    0.0000 H   0  0  0  0  0  0  0  0  0  0  0  0
    1.4631   -2.4396    0.0000 H   0  0  0  0  0  0  0  0  0  0  0  0
   22.7054    2.4256    0.0000 H   0  0  0  0  0  0  0  0  0  0  0  0
    8.3301    3.2682    0.0000 H   0  0  0  0  0  0  0  0  0  0  0  0
    9.0877    3.0206    0.0000 H   0  0  0  0  0  0  0  0  0  0  0  0
    9.1059    5.4185    0.0000 H   0  0  0  0  0  0  0  0  0  0  0  0
   12.3883    0.4637    0.0000 H   0  0  0  0  0  0  0  0  0  0  0  0
   12.6605   -5.3380    0.0000 H   0  0  0  0  0  0  0  0  0  0  0  0
   14.7490   -3.4640    0.0000 H   0  0  0  0  0  0  0  0  0  0  0  0
   23.5555   -1.6081    0.0000 H   0  0  0  0  0  0  0  0  0  0  0  0
   21.4671   -3.4820    0.0000 H   0  0  0  0  0  0  0  0  0  0  0  0
   23.9231    0.5758    0.0000 H   0  0  0  0  0  0  0  0  0  0  0  0
   22.9023    0.9094    0.0000 H   0  0  0  0  0  0  0  0  0  0  0  0
    8.4532   -6.7929    0.0000 H   0  0  0  0  0  0  0  0  0  0  0  0
    8.8499   -7.5748    0.0000 H   0  0  0  0  0  0  0  0  0  0  0  0
    9.6318   -7.1781    0.0000 H   0  0  0  0  0  0  0  0  0  0  0  0
    3.0000    4.1317    0.0000 H   0  0  0  0  0  0  0  0  0  0  0  0
    3.7993    4.8489    0.0000 H   0  0  0  0  0  0  0  0  0  0  0  0
   24.6374   -2.8138    0.0000 H   0  0  0  0  0  0  0  0  0  0  0  0
   22.5490   -4.6878    0.0000 H   0  0  0  0  0  0  0  0  0  0  0  0
   13.7424   -6.5437    0.0000 H   0  0  0  0  0  0  0  0  0  0  0  0
   15.8309   -4.6698    0.0000 H   0  0  0  0  0  0  0  0  0  0  0  0
   10.3102    2.4685    0.0000 H   0  0  0  0  0  0  0  0  0  0  0  0
    9.7315    5.2141    0.0000 H   0  0  0  0  0  0  0  0  0  0  0  0
   15.3276   -6.2097    0.0000 H   0  0  0  0  0  0  0  0  0  0  0  0
   23.7732    4.6331    0.0000 H   0  0  0  0  0  0  0  0  0  0  0  0
   23.9946    3.5823    0.0000 H   0  0  0  0  0  0  0  0  0  0  0  0
   11.8954    2.8025    0.0000 H   0  0  0  0  0  0  0  0  0  0  0  0
   11.3167    5.5481    0.0000 H   0  0  0  0  0  0  0  0  0  0  0  0
    8.7314    6.7929    0.0000 H   0  0  0  0  0  0  0  0  0  0  0  0
    8.3347    7.5748    0.0000 H   0  0  0  0  0  0  0  0  0  0  0  0
    7.5528    7.1781    0.0000 H   0  0  0  0  0  0  0  0  0  0  0  0
   22.1268    5.1712    0.0000 H   0  0  0  0  0  0  0  0  0  0  0  0
   24.1953   -5.2258    0.0000 H   0  0  0  0  0  0  0  0  0  0  0  0
   12.9631    5.0101    0.0000 H   0  0  0  0  0  0  0  0  0  0  0  0
  1 43  2  0  0  0  0
  2 46  2  0  0  0  0
  3 48  2  0  0  0  0
  4 54  2  0  0  0  0
  5 59  2  0  0  0  0
  6 63  2  0  0  0  0
  7 68  1  0  0  0  0
  7167  1  0  0  0  0
  8 64  2  0  0  0  0
  9 72  2  0  0  0  0
 10 75  2  0  0  0  0
 11 77  2  0  0  0  0
 12 81  2  0  0  0  0
 13 82  2  0  0  0  0
 14 97  1  0  0  0  0
 14194  1  0  0  0  0
 15 90  2  0  0  0  0
 16102  1  0  0  0  0
 16195  1  0  0  0  0
 34 17  1  6  0  0  0
 17 43  1  0  0  0  0
 17116  1  0  0  0  0
 42 18  1  1  0  0  0
 18 46  1  0  0  0  0
 18121  1  0  0  0  0
 37 19  1  6  0  0  0
 19 59  1  0  0  0  0
 19122  1  0  0  0  0
 35 20  1  1  0  0  0
 20 63  1  0  0  0  0
 20123  1  0  0  0  0
 21 48  1  0  0  0  0
 53 21  1  1  0  0  0
 21133  1  0  0  0  0
 22 57  1  0  0  0  0
 22 58  1  0  0  0  0
 22141  1  0  0  0  0
 23 54  1  0  0  0  0
 62 23  1  6  0  0  0
 23143  1  0  0  0  0
 61 24  1  6  0  0  0
 24 64  1  0  0  0  0
 24151  1  0  0  0  0
 55 25  1  6  0  0  0
 25 75  1  0  0  0  0
 25154  1  0  0  0  0
 26 67  1  0  0  0  0
 26 72  1  0  0  0  0
 26158  1  0  0  0  0
 27 56  1  0  0  0  0
 27 82  1  0  0  0  0
 27159  1  0  0  0  0
 28 60  1  0  0  0  0
 28 84  1  0  0  0  0
 28163  1  0  0  0  0
 73 29  1  1  0  0  0
 29 90  1  0  0  0  0
 29166  1  0  0  0  0
 30 77  1  0  0  0  0
 30172  1  0  0  0  0
 30173  1  0  0  0  0
 31 81  1  0  0  0  0
 31177  1  0  0  0  0
 31178  1  0  0  0  0
 32 84  1  0  0  0  0
 32186  1  0  0  0  0
 32187  1  0  0  0  0
 33 84  2  0  0  0  0
 33193  1  0  0  0  0
 34 38  1  0  0  0  0
 34 48  1  0  0  0  0
 34103  1  0  0  0  0
 35 36  1  0  0  0  0
 35 46  1  0  0  0  0
 35104  1  0  0  0  0
 36 39  1  0  0  0  0
 36105  1  0  0  0  0
 36106  1  0  0  0  0
 37 40  1  0  0  0  0
 37 43  1  0  0  0  0
 37107  1  0  0  0  0
 38 41  1  0  0  0  0
 38108  1  0  0  0  0
 38109  1  0  0  0  0
 39 51  1  0  0  0  0
 39 52  1  0  0  0  0
 39110  1  0  0  0  0
 40 45  1  0  0  0  0
 40111  1  0  0  0  0
 40112  1  0  0  0  0
 41 47  1  0  0  0  0
 41113  1  0  0  0  0
 41114  1  0  0  0  0
 42 44  1  0  0  0  0
 42 54  1  0  0  0  0
 42115  1  0  0  0  0
 44 49  1  0  0  0  0
 44117  1  0  0  0  0
 44118  1  0  0  0  0
 45 50  1  0  0  0  0
 45 58  2  0  0  0  0
 47 56  1  0  0  0  0
 47119  1  0  0  0  0
 47120  1  0  0  0  0
 49 60  1  0  0  0  0
 49124  1  0  0  0  0
 49125  1  0  0  0  0
 50 57  1  0  0  0  0
 50 66  2  0  0  0  0
 51129  1  0  0  0  0
 51130  1  0  0  0  0
 51131  1  0  0  0  0
 52126  1  0  0  0  0
 52127  1  0  0  0  0
 52128  1  0  0  0  0
 53 64  1  0  0  0  0
 53 68  1  0  0  0  0
 53132  1  0  0  0  0
 55 59  1  0  0  0  0
 55 65  1  0  0  0  0
 55134  1  0  0  0  0
 56135  1  0  0  0  0
 56136  1  0  0  0  0
 57 71  2  0  0  0  0
 58137  1  0  0  0  0
 60138  1  0  0  0  0
 60139  1  0  0  0  0
 61 69  1  0  0  0  0
 61 72  1  0  0  0  0
 61140  1  0  0  0  0
 62 70  1  0  0  0  0
 62 77  1  0  0  0  0
 62142  1  0  0  0  0
 63 67  1  0  0  0  0
 65 81  1  0  0  0  0
 65144  1  0  0  0  0
 65145  1  0  0  0  0
 66 74  1  0  0  0  0
 66146  1  0  0  0  0
 67147  1  0  0  0  0
 67148  1  0  0  0  0
 68149  1  0  0  0  0
 68150  1  0  0  0  0
 69 78  1  0  0  0  0
 69152  1  0  0  0  0
 69153  1  0  0  0  0
 70 79  1  0  0  0  0
 70155  1  0  0  0  0
 70156  1  0  0  0  0
 71 76  1  0  0  0  0
 71157  1  0  0  0  0
 73 75  1  0  0  0  0
 73 80  1  0  0  0  0
 73160  1  0  0  0  0
 74 76  2  0  0  0  0
 74161  1  0  0  0  0
 76162  1  0  0  0  0
 78 85  2  0  0  0  0
 78 86  1  0  0  0  0
 79 87  2  0  0  0  0
 79 88  1  0  0  0  0
 80 83  1  0  0  0  0
 80164  1  0  0  0  0
 80165  1  0  0  0  0
 82 89  1  0  0  0  0
 83 95  2  0  0  0  0
 83 96  1  0  0  0  0
 85 93  1  0  0  0  0
 85168  1  0  0  0  0
 86 94  2  0  0  0  0
 86169  1  0  0  0  0
 87 91  1  0  0  0  0
 87170  1  0  0  0  0
 88 92  2  0  0  0  0
 88171  1  0  0  0  0
 89174  1  0  0  0  0
 89175  1  0  0  0  0
 89176  1  0  0  0  0
 90101  1  0  0  0  0
 91 97  2  0  0  0  0
 91179  1  0  0  0  0
 92 97  1  0  0  0  0
 92180  1  0  0  0  0
 93 98  2  0  0  0  0
 93181  1  0  0  0  0
 94 98  1  0  0  0  0
 94182  1  0  0  0  0
 95 99  1  0  0  0  0
 95183  1  0  0  0  0
 96100  2  0  0  0  0
 96184  1  0  0  0  0
 98185  1  0  0  0  0
 99102  2  0  0  0  0
 99188  1  0  0  0  0
100102  1  0  0  0  0
100189  1  0  0  0  0
101190  1  0  0  0  0
101191  1  0  0  0  0
101192  1  0  0  0  0
M  END
> <PUBCHEM_COMPOUND_CID>
118735679

> <PUBCHEM_COMPOUND_CANONICALIZED>
0

> <PUBCHEM_CACTVS_COMPLEXITY>
2810

> <PUBCHEM_CACTVS_HBOND_ACCEPTOR>
17

> <PUBCHEM_CACTVS_HBOND_DONOR>
20

> <PUBCHEM_CACTVS_ROTATABLE_BOND>
43

> <PUBCHEM_CACTVS_SUBSKEYS>
AAADcfB//gAAAAAAAAAAAAAAAAAAAWAAAAAwYMGAAAAAAFgB9AAAHgAQCAAADSzhngY/xvLJkgCoAzV3dACCgCCxIiAJ2aG+bJiKdv7C2bOUcAhm9hPY2AedyeCOoAAAAAACAABAAAAAAAQAAAAAAAAAAA==

> <PUBCHEM_IUPAC_INCHI>
InChI=1S/C69H93N17O16/c1-38(2)29-52(64(98)81-50(18-12-28-75-69(72)73)62(96)82-51(60(71)94)30-42-19-23-45(90)24-20-42)79-59(93)36-77-61(95)53(31-41-13-6-5-7-14-41)83-68(102)57(37-87)86-63(97)49(17-10-11-27-74-39(3)88)80-66(100)55(33-44-35-76-48-16-9-8-15-47(44)48)84-67(101)56(34-58(70)92)85-65(99)54(78-40(4)89)32-43-21-25-46(91)26-22-43/h5-9,13-16,19-26,35,38,49-57,76,87,90-91H,10-12,17-18,27-34,36-37H2,1-4H3,(H2,70,92)(H2,71,94)(H,74,88)(H,77,95)(H,78,89)(H,79,93)(H,80,100)(H,81,98)(H,82,96)(H,83,102)(H,84,101)(H,85,99)(H,86,97)(H4,72,73,75)/t49-,50-,51-,52-,53-,54-,55-,56-,57-/m0/s1

> <PUBCHEM_IUPAC_INCHIKEY>
BUWCPRSMTULRJT-WIVDLTSQSA-N

> <PUBCHEM_XLOGP3_AA>
-0.1

> <PUBCHEM_EXACT_MASS>
1415.699

> <PUBCHEM_MOLECULAR_FORMULA>
C69H93N17O16

> <PUBCHEM_MOLECULAR_WEIGHT>
1416.606

> <PUBCHEM_OPENEYE_CAN_SMILES>
CC(C)CC(C(=O)NC(CCCNC(=N)N)C(=O)NC(CC1=CC=C(C=C1)O)C(=O)N)NC(=O)CNC(=O)C(CC2=CC=CC=C2)NC(=O)C(CO)NC(=O)C(CCCCNC(=O)C)NC(=O)C(CC3=CNC4=CC=CC=C43)NC(=O)C(CC(=O)N)NC(=O)C(CC5=CC=C(C=C5)O)NC(=O)C

> <PUBCHEM_OPENEYE_ISO_SMILES>
CC(C)C[C@@H](C(=O)N[C@@H](CCCNC(=N)N)C(=O)N[C@@H](CC1=CC=C(C=C1)O)C(=O)N)NC(=O)CNC(=O)[C@H](CC2=CC=CC=C2)NC(=O)[C@H](CO)NC(=O)[C@H](CCCCNC(=O)C)NC(=O)[C@H](CC3=CNC4=CC=CC=C43)NC(=O)[C@H](CC(=O)N)NC(=O)[C@H](CC5=CC=C(C=C5)O)NC(=O)C

> <PUBCHEM_CACTVS_TPSA>
545

> <PUBCHEM_MONOISOTOPIC_WEIGHT>
1415.699

> <PUBCHEM_TOTAL_CHARGE>
0

> <PUBCHEM_HEAVY_ATOM_COUNT>
102

> <PUBCHEM_ATOM_DEF_STEREO_COUNT>
9

> <PUBCHEM_ATOM_UDEF_STEREO_COUNT>
0

> <PUBCHEM_BOND_DEF_STEREO_COUNT>
0

> <PUBCHEM_BOND_UDEF_STEREO_COUNT>
0

> <PUBCHEM_ISOTOPIC_ATOM_COUNT>
0

> <PUBCHEM_COMPONENT_COUNT>
1

> <PUBCHEM_CACTVS_TAUTO_COUNT>
1000

> <PUBCHEM_COORDINATE_TYPE>
1
5
255

> <PUBCHEM_BONDANNOTATIONS>
100  102  8
34  17  6
42  18  5
37  19  6
35  20  5
53  21  5
22  57  8
22  58  8
62  23  6
61  24  6
55  25  6
73  29  5
45  50  8
45  58  8
50  57  8
50  66  8
57  71  8
66  74  8
71  76  8
74  76  8
78  85  8
78  86  8
79  87  8
79  88  8
83  95  8
83  96  8
85  93  8
86  94  8
87  91  8
88  92  8
91  97  8
92  97  8
93  98  8
94  98  8
95  99  8
96  100  8
99  102  8

$$$$
