118735680
  -OEChem-03161706412D

198202  0     1  0  0  0  0  0999 V2000
   19.4489   -3.5378    0.0000 O   0  0  0  0  0  0  0  0  0  0  0  0
   11.2637   -3.4928    0.0000 O   0  0  0  0  0  0  0  0  0  0  0  0
    9.5708   -0.3093    0.0000 O   0  0  0  0  0  0  0  0  0  0  0  0
   19.7130    0.0580    0.0000 O   0  0  0  0  0  0  0  0  0  0  0  0
    6.3246   -1.8785    0.0000 O   0  0  0  0  0  0  0  0  0  0  0  0
   15.8455   -3.4122    0.0000 O   0  0  0  0  0  0  0  0  0  0  0  0
   14.8670   -3.6184    0.0000 O   0  0  0  0  0  0  0  0  0  0  0  0
    4.6318    1.3049    0.0000 O   0  0  0  0  0  0  0  0  0  0  0  0
    9.1277   -3.7058    0.0000 O   0  0  0  0  0  0  0  0  0  0  0  0
   22.9592    1.6272    0.0000 O   0  0  0  0  0  0  0  0  0  0  0  0
    6.5422    4.3627    0.0000 O   0  0  0  0  0  0  0  0  0  0  0  0
    3.9639    2.0492    0.0000 O   0  0  0  0  0  0  0  0  0  0  0  0
   15.7990   -0.7668    0.0000 O   0  0  0  0  0  0  0  0  0  0  0  0
   22.2449    5.0169    0.0000 O   0  0  0  0  0  0  0  0  0  0  0  0
    6.8529    5.3132    0.0000 O   0  0  0  0  0  0  0  0  0  0  0  0
   12.7705    3.9052    0.0000 O   0  0  0  0  0  0  0  0  0  0  0  0
   19.0917   -1.8430    0.0000 N   0  0  0  0  0  0  0  0  0  0  0  0
    9.9280   -2.0042    0.0000 N   0  0  0  0  0  0  0  0  0  0  0  0
   17.1347   -2.2554    0.0000 N   0  0  0  0  0  0  0  0  0  0  0  0
   12.5528   -2.3360    0.0000 N   0  0  0  0  0  0  0  0  0  0  0  0
    7.6138   -0.7218    0.0000 N   0  0  0  0  0  0  0  0  0  0  0  0
    6.2781    0.7668    0.0000 N   0  0  0  0  0  0  0  0  0  0  0  0
   21.3594   -0.4800    0.0000 N   0  0  0  0  0  0  0  0  0  0  0  0
   14.5098   -1.9236    0.0000 N   0  0  0  0  0  0  0  0  0  0  0  0
    4.6783   -2.9499    0.0000 N   0  0  0  0  0  0  0  0  0  0  0  0
    6.8994    2.6679    0.0000 N   0  0  0  0  0  0  0  0  0  0  0  0
   14.1527   -0.2288    0.0000 N   0  0  0  0  0  0  0  0  0  0  0  0
   23.3629   -2.7130    0.0000 N   0  0  0  0  0  0  0  0  0  0  0  0
    7.4329   -4.0629    0.0000 N   0  0  0  0  0  0  0  0  0  0  0  0
    8.4993    4.7751    0.0000 N   0  0  0  0  0  0  0  0  0  0  0  0
   23.3164   -0.0676    0.0000 N   0  0  0  0  0  0  0  0  0  0  0  0
    3.6067    3.7440    0.0000 N   0  0  0  0  0  0  0  0  0  0  0  0
   25.0093   -3.2510    0.0000 N   0  0  0  0  0  0  0  0  0  0  0  0
   23.7201   -4.4078    0.0000 N   0  0  0  0  0  0  0  0  0  0  0  0
   17.8025   -2.9997    0.0000 C   0  0  1  0  0  0  0  0  0  0  0  0
   17.4919   -3.9503    0.0000 C   0  0  0  0  0  0  0  0  0  0  0  0
   18.1597   -4.6946    0.0000 C   0  0  0  0  0  0  0  0  0  0  0  0
   10.9065   -1.7979    0.0000 C   0  0  1  0  0  0  0  0  0  0  0  0
   11.2171   -0.8474    0.0000 C   0  0  0  0  0  0  0  0  0  0  0  0
   20.0702   -1.6368    0.0000 C   0  0  1  0  0  0  0  0  0  0  0  0
   12.1957   -0.6412    0.0000 C   0  0  0  0  0  0  0  0  0  0  0  0
   20.7381   -2.3811    0.0000 C   0  0  0  0  0  0  0  0  0  0  0  0
   18.7811   -2.7935    0.0000 C   0  0  0  0  0  0  0  0  0  0  0  0
    5.9674   -0.1837    0.0000 C   0  0  1  0  0  0  0  0  0  0  0  0
    8.2816   -1.4661    0.0000 C   0  0  2  0  0  0  0  0  0  0  0  0
    4.9889   -0.3899    0.0000 C   0  0  0  0  0  0  0  0  0  0  0  0
   13.2207   -3.0803    0.0000 C   0  0  1  0  0  0  0  0  0  0  0  0
   11.5743   -2.5422    0.0000 C   0  0  0  0  0  0  0  0  0  0  0  0
   12.5063    0.3093    0.0000 C   0  0  0  0  0  0  0  0  0  0  0  0
   21.7166   -2.1749    0.0000 C   0  0  0  0  0  0  0  0  0  0  0  0
   17.8491   -5.6451    0.0000 C   0  0  0  0  0  0  0  0  0  0  0  0
   19.1382   -4.4883    0.0000 C   0  0  0  0  0  0  0  0  0  0  0  0
    9.2601   -1.2598    0.0000 C   0  0  0  0  0  0  0  0  0  0  0  0
    4.6783   -1.3404    0.0000 C   0  0  0  0  0  0  0  0  0  0  0  0
   20.3809   -0.6863    0.0000 C   0  0  0  0  0  0  0  0  0  0  0  0
    6.6353   -0.9280    0.0000 C   0  0  0  0  0  0  0  0  0  0  0  0
   12.9100   -4.0308    0.0000 C   0  0  0  0  0  0  0  0  0  0  0  0
    7.9710   -2.4166    0.0000 C   0  0  0  0  0  0  0  0  0  0  0  0
    3.7320   -1.6452    0.0000 C   0  0  0  0  0  0  0  0  0  0  0  0
   16.1562   -2.4617    0.0000 C   0  0  0  0  0  0  0  0  0  0  0  0
   13.4848    0.5155    0.0000 C   0  0  0  0  0  0  0  0  0  0  0  0
   22.3844   -2.9192    0.0000 C   0  0  0  0  0  0  0  0  0  0  0  0
   14.1992   -2.8741    0.0000 C   0  0  0  0  0  0  0  0  0  0  0  0
   21.6701    0.4705    0.0000 C   0  0  1  0  0  0  0  0  0  0  0  0
   15.4884   -1.7174    0.0000 C   0  0  0  0  0  0  0  0  0  0  0  0
    5.9209    2.4617    0.0000 C   0  0  2  0  0  0  0  0  0  0  0  0
    3.7320   -2.6452    0.0000 C   0  0  0  0  0  0  0  0  0  0  0  0
    5.2619   -2.1452    0.0000 C   0  0  0  0  0  0  0  0  0  0  0  0
    5.6103    1.5111    0.0000 C   0  0  0  0  0  0  0  0  0  0  0  0
   13.5779   -4.7751    0.0000 C   0  0  0  0  0  0  0  0  0  0  0  0
   21.0022    1.2148    0.0000 C   0  0  0  0  0  0  0  0  0  0  0  0
    5.2531    3.2060    0.0000 C   0  0  0  0  0  0  0  0  0  0  0  0
    2.8660   -1.1451    0.0000 C   0  0  0  0  0  0  0  0  0  0  0  0
    8.1772   -3.3951    0.0000 C   0  0  0  0  0  0  0  0  0  0  0  0
    2.8660   -3.1452    0.0000 C   0  0  0  0  0  0  0  0  0  0  0  0
    8.1886    3.8246    0.0000 C   0  0  2  0  0  0  0  0  0  0  0  0
   22.6486    0.6767    0.0000 C   0  0  0  0  0  0  0  0  0  0  0  0
   21.3129    2.1653    0.0000 C   0  0  0  0  0  0  0  0  0  0  0  0
    7.2101    3.6184    0.0000 C   0  0  0  0  0  0  0  0  0  0  0  0
    2.0000   -1.6452    0.0000 C   0  0  0  0  0  0  0  0  0  0  0  0
   13.2672   -5.7257    0.0000 C   0  0  0  0  0  0  0  0  0  0  0  0
   14.5564   -4.5689    0.0000 C   0  0  0  0  0  0  0  0  0  0  0  0
    2.0000   -2.6452    0.0000 C   0  0  0  0  0  0  0  0  0  0  0  0
    8.8564    3.0803    0.0000 C   0  0  0  0  0  0  0  0  0  0  0  0
    4.2746    2.9997    0.0000 C   0  0  0  0  0  0  0  0  0  0  0  0
   15.1312   -0.0225    0.0000 C   0  0  0  0  0  0  0  0  0  0  0  0
   24.0308   -3.4572    0.0000 C   0  0  0  0  0  0  0  0  0  0  0  0
   13.9350   -6.4700    0.0000 C   0  0  0  0  0  0  0  0  0  0  0  0
   15.2242   -5.3132    0.0000 C   0  0  0  0  0  0  0  0  0  0  0  0
   20.6450    2.9096    0.0000 C   0  0  0  0  0  0  0  0  0  0  0  0
   22.2914    2.3715    0.0000 C   0  0  0  0  0  0  0  0  0  0  0  0
    9.8349    3.2865    0.0000 C   0  0  0  0  0  0  0  0  0  0  0  0
   14.9135   -6.2637    0.0000 C   0  0  0  0  0  0  0  0  0  0  0  0
   15.4418    0.9280    0.0000 C   0  0  0  0  0  0  0  0  0  0  0  0
   20.9557    3.8601    0.0000 C   0  0  0  0  0  0  0  0  0  0  0  0
   22.6020    3.3220    0.0000 C   0  0  0  0  0  0  0  0  0  0  0  0
   21.9342    4.0663    0.0000 C   0  0  0  0  0  0  0  0  0  0  0  0
    7.8314    5.5194    0.0000 C   0  0  0  0  0  0  0  0  0  0  0  0
   10.5028    2.5422    0.0000 C   0  0  0  0  0  0  0  0  0  0  0  0
   10.1456    4.2370    0.0000 C   0  0  0  0  0  0  0  0  0  0  0  0
   11.4813    2.7484    0.0000 C   0  0  0  0  0  0  0  0  0  0  0  0
   11.1241    4.4433    0.0000 C   0  0  0  0  0  0  0  0  0  0  0  0
    8.1421    6.4700    0.0000 C   0  0  0  0  0  0  0  0  0  0  0  0
   11.7920    3.6990    0.0000 C   0  0  0  0  0  0  0  0  0  0  0  0
   17.1959   -3.1276    0.0000 H   0  0  0  0  0  0  0  0  0  0  0  0
   16.9450   -3.6582    0.0000 H   0  0  0  0  0  0  0  0  0  0  0  0
   17.1093   -4.4382    0.0000 H   0  0  0  0  0  0  0  0  0  0  0  0
   17.5531   -4.8224    0.0000 H   0  0  0  0  0  0  0  0  0  0  0  0
   10.4924   -1.3365    0.0000 H   0  0  0  0  0  0  0  0  0  0  0  0
   11.1966   -0.2278    0.0000 H   0  0  0  0  0  0  0  0  0  0  0  0
   10.6033   -0.7601    0.0000 H   0  0  0  0  0  0  0  0  0  0  0  0
   19.8776   -2.2261    0.0000 H   0  0  0  0  0  0  0  0  0  0  0  0
   12.2162   -1.2608    0.0000 H   0  0  0  0  0  0  0  0  0  0  0  0
   12.8095   -0.7285    0.0000 H   0  0  0  0  0  0  0  0  0  0  0  0
   20.2117   -2.7087    0.0000 H   0  0  0  0  0  0  0  0  0  0  0  0
   20.9693   -2.9563    0.0000 H   0  0  0  0  0  0  0  0  0  0  0  0
    5.5534    0.2778    0.0000 H   0  0  0  0  0  0  0  0  0  0  0  0
    8.4742   -0.8767    0.0000 H   0  0  0  0  0  0  0  0  0  0  0  0
   18.6777   -1.3815    0.0000 H   0  0  0  0  0  0  0  0  0  0  0  0
    4.9684    0.2298    0.0000 H   0  0  0  0  0  0  0  0  0  0  0  0
    4.3751   -0.3026    0.0000 H   0  0  0  0  0  0  0  0  0  0  0  0
    9.7354   -2.5935    0.0000 H   0  0  0  0  0  0  0  0  0  0  0  0
   17.3273   -1.6661    0.0000 H   0  0  0  0  0  0  0  0  0  0  0  0
   12.6140   -3.2082    0.0000 H   0  0  0  0  0  0  0  0  0  0  0  0
   12.4858    0.9290    0.0000 H   0  0  0  0  0  0  0  0  0  0  0  0
   11.8925    0.3967    0.0000 H   0  0  0  0  0  0  0  0  0  0  0  0
   22.2429   -1.8472    0.0000 H   0  0  0  0  0  0  0  0  0  0  0  0
   21.4853   -1.5996    0.0000 H   0  0  0  0  0  0  0  0  0  0  0  0
   19.2661   -5.0950    0.0000 H   0  0  0  0  0  0  0  0  0  0  0  0
   19.7449   -4.3605    0.0000 H   0  0  0  0  0  0  0  0  0  0  0  0
   19.0104   -3.8817    0.0000 H   0  0  0  0  0  0  0  0  0  0  0  0
   17.2597   -5.4525    0.0000 H   0  0  0  0  0  0  0  0  0  0  0  0
   17.6565   -6.2344    0.0000 H   0  0  0  0  0  0  0  0  0  0  0  0
   18.4384   -5.8377    0.0000 H   0  0  0  0  0  0  0  0  0  0  0  0
   12.7454   -1.7467    0.0000 H   0  0  0  0  0  0  0  0  0  0  0  0
    7.8064   -0.1324    0.0000 H   0  0  0  0  0  0  0  0  0  0  0  0
   12.3631   -3.7388    0.0000 H   0  0  0  0  0  0  0  0  0  0  0  0
   12.5275   -4.5187    0.0000 H   0  0  0  0  0  0  0  0  0  0  0  0
    7.4831   -2.0340    0.0000 H   0  0  0  0  0  0  0  0  0  0  0  0
    8.5901   -2.4501    0.0000 H   0  0  0  0  0  0  0  0  0  0  0  0
    6.8848    0.8947    0.0000 H   0  0  0  0  0  0  0  0  0  0  0  0
   14.0112    0.8432    0.0000 H   0  0  0  0  0  0  0  0  0  0  0  0
   13.2536    1.0908    0.0000 H   0  0  0  0  0  0  0  0  0  0  0  0
   21.8581   -3.2468    0.0000 H   0  0  0  0  0  0  0  0  0  0  0  0
   22.6157   -3.4944    0.0000 H   0  0  0  0  0  0  0  0  0  0  0  0
   22.0841    0.0090    0.0000 H   0  0  0  0  0  0  0  0  0  0  0  0
   16.0147   -1.3897    0.0000 H   0  0  0  0  0  0  0  0  0  0  0  0
   15.2571   -1.1421    0.0000 H   0  0  0  0  0  0  0  0  0  0  0  0
   21.7735   -0.9415    0.0000 H   0  0  0  0  0  0  0  0  0  0  0  0
    6.1135    3.0510    0.0000 H   0  0  0  0  0  0  0  0  0  0  0  0
    5.8819   -2.1452    0.0000 H   0  0  0  0  0  0  0  0  0  0  0  0
   14.0958   -1.4621    0.0000 H   0  0  0  0  0  0  0  0  0  0  0  0
    4.8709   -3.5392    0.0000 H   0  0  0  0  0  0  0  0  0  0  0  0
   20.4553    1.5068    0.0000 H   0  0  0  0  0  0  0  0  0  0  0  0
   20.6197    0.7269    0.0000 H   0  0  0  0  0  0  0  0  0  0  0  0
    5.7794    3.5336    0.0000 H   0  0  0  0  0  0  0  0  0  0  0  0
    5.0218    3.7812    0.0000 H   0  0  0  0  0  0  0  0  0  0  0  0
    2.8660   -0.5252    0.0000 H   0  0  0  0  0  0  0  0  0  0  0  0
    7.3135    2.2064    0.0000 H   0  0  0  0  0  0  0  0  0  0  0  0
   13.9601   -0.8181    0.0000 H   0  0  0  0  0  0  0  0  0  0  0  0
    2.8660   -3.7652    0.0000 H   0  0  0  0  0  0  0  0  0  0  0  0
   23.5555   -2.1236    0.0000 H   0  0  0  0  0  0  0  0  0  0  0  0
    7.7745    4.2861    0.0000 H   0  0  0  0  0  0  0  0  0  0  0  0
    1.4631   -1.3352    0.0000 H   0  0  0  0  0  0  0  0  0  0  0  0
   12.6605   -5.8535    0.0000 H   0  0  0  0  0  0  0  0  0  0  0  0
   14.7490   -3.9796    0.0000 H   0  0  0  0  0  0  0  0  0  0  0  0
    1.4631   -2.9552    0.0000 H   0  0  0  0  0  0  0  0  0  0  0  0
    8.3301    2.7527    0.0000 H   0  0  0  0  0  0  0  0  0  0  0  0
    9.0877    2.5051    0.0000 H   0  0  0  0  0  0  0  0  0  0  0  0
   13.7424   -7.0593    0.0000 H   0  0  0  0  0  0  0  0  0  0  0  0
   15.8309   -5.1854    0.0000 H   0  0  0  0  0  0  0  0  0  0  0  0
   20.0384    2.7817    0.0000 H   0  0  0  0  0  0  0  0  0  0  0  0
   22.7054    1.9100    0.0000 H   0  0  0  0  0  0  0  0  0  0  0  0
    7.5607   -4.6696    0.0000 H   0  0  0  0  0  0  0  0  0  0  0  0
    6.8436   -3.8704    0.0000 H   0  0  0  0  0  0  0  0  0  0  0  0
    9.1059    4.9030    0.0000 H   0  0  0  0  0  0  0  0  0  0  0  0
   15.3276   -6.7252    0.0000 H   0  0  0  0  0  0  0  0  0  0  0  0
   23.9231    0.0602    0.0000 H   0  0  0  0  0  0  0  0  0  0  0  0
   23.1238   -0.6569    0.0000 H   0  0  0  0  0  0  0  0  0  0  0  0
   16.0312    0.7354    0.0000 H   0  0  0  0  0  0  0  0  0  0  0  0
   15.6344    1.5173    0.0000 H   0  0  0  0  0  0  0  0  0  0  0  0
   14.8525    1.1206    0.0000 H   0  0  0  0  0  0  0  0  0  0  0  0
   20.5416    4.3216    0.0000 H   0  0  0  0  0  0  0  0  0  0  0  0
   23.2087    3.4499    0.0000 H   0  0  0  0  0  0  0  0  0  0  0  0
    3.0000    3.6162    0.0000 H   0  0  0  0  0  0  0  0  0  0  0  0
    3.7993    4.3334    0.0000 H   0  0  0  0  0  0  0  0  0  0  0  0
   10.3102    1.9529    0.0000 H   0  0  0  0  0  0  0  0  0  0  0  0
    9.7315    4.6985    0.0000 H   0  0  0  0  0  0  0  0  0  0  0  0
   25.4233   -3.7125    0.0000 H   0  0  0  0  0  0  0  0  0  0  0  0
   25.2019   -2.6617    0.0000 H   0  0  0  0  0  0  0  0  0  0  0  0
   24.1342   -4.8692    0.0000 H   0  0  0  0  0  0  0  0  0  0  0  0
   11.8954    2.2870    0.0000 H   0  0  0  0  0  0  0  0  0  0  0  0
   11.3167    5.0326    0.0000 H   0  0  0  0  0  0  0  0  0  0  0  0
    8.7314    6.2774    0.0000 H   0  0  0  0  0  0  0  0  0  0  0  0
    8.3347    7.0593    0.0000 H   0  0  0  0  0  0  0  0  0  0  0  0
    7.5528    6.6626    0.0000 H   0  0  0  0  0  0  0  0  0  0  0  0
   21.8308    5.4783    0.0000 H   0  0  0  0  0  0  0  0  0  0  0  0
   12.9631    4.4945    0.0000 H   0  0  0  0  0  0  0  0  0  0  0  0
  1 43  2  0  0  0  0
  2 48  2  0  0  0  0
  3 53  2  0  0  0  0
  4 55  2  0  0  0  0
  5 56  2  0  0  0  0
  6 60  2  0  0  0  0
  7 63  2  0  0  0  0
  8 69  2  0  0  0  0
  9 74  2  0  0  0  0
 10 77  2  0  0  0  0
 11 79  2  0  0  0  0
 12 85  2  0  0  0  0
 13 86  2  0  0  0  0
 14 97  1  0  0  0  0
 14197  1  0  0  0  0
 15 98  2  0  0  0  0
 16104  1  0  0  0  0
 16198  1  0  0  0  0
 40 17  1  6  0  0  0
 17 43  1  0  0  0  0
 17119  1  0  0  0  0
 38 18  1  1  0  0  0
 18 53  1  0  0  0  0
 18122  1  0  0  0  0
 35 19  1  6  0  0  0
 19 60  1  0  0  0  0
 19123  1  0  0  0  0
 47 20  1  6  0  0  0
 20 48  1  0  0  0  0
 20135  1  0  0  0  0
 45 21  1  6  0  0  0
 21 56  1  0  0  0  0
 21136  1  0  0  0  0
 44 22  1  6  0  0  0
 22 69  1  0  0  0  0
 22141  1  0  0  0  0
 23 55  1  0  0  0  0
 64 23  1  1  0  0  0
 23149  1  0  0  0  0
 24 63  1  0  0  0  0
 24 65  1  0  0  0  0
 24152  1  0  0  0  0
 25 67  1  0  0  0  0
 25 68  1  0  0  0  0
 25153  1  0  0  0  0
 66 26  1  6  0  0  0
 26 79  1  0  0  0  0
 26159  1  0  0  0  0
 27 61  1  0  0  0  0
 27 86  1  0  0  0  0
 27160  1  0  0  0  0
 28 62  1  0  0  0  0
 28 87  1  0  0  0  0
 28162  1  0  0  0  0
 29 74  1  0  0  0  0
 29174  1  0  0  0  0
 29175  1  0  0  0  0
 76 30  1  1  0  0  0
 30 98  1  0  0  0  0
 30176  1  0  0  0  0
 31 77  1  0  0  0  0
 31178  1  0  0  0  0
 31179  1  0  0  0  0
 32 85  1  0  0  0  0
 32185  1  0  0  0  0
 32186  1  0  0  0  0
 33 87  1  0  0  0  0
 33189  1  0  0  0  0
 33190  1  0  0  0  0
 34 87  2  0  0  0  0
 34191  1  0  0  0  0
 35 36  1  0  0  0  0
 35 43  1  0  0  0  0
 35105  1  0  0  0  0
 36 37  1  0  0  0  0
 36106  1  0  0  0  0
 36107  1  0  0  0  0
 37 51  1  0  0  0  0
 37 52  1  0  0  0  0
 37108  1  0  0  0  0
 38 39  1  0  0  0  0
 38 48  1  0  0  0  0
 38109  1  0  0  0  0
 39 41  1  0  0  0  0
 39110  1  0  0  0  0
 39111  1  0  0  0  0
 40 42  1  0  0  0  0
 40 55  1  0  0  0  0
 40112  1  0  0  0  0
 41 49  1  0  0  0  0
 41113  1  0  0  0  0
 41114  1  0  0  0  0
 42 50  1  0  0  0  0
 42115  1  0  0  0  0
 42116  1  0  0  0  0
 44 46  1  0  0  0  0
 44 56  1  0  0  0  0
 44117  1  0  0  0  0
 45 53  1  0  0  0  0
 45 58  1  0  0  0  0
 45118  1  0  0  0  0
 46 54  1  0  0  0  0
 46120  1  0  0  0  0
 46121  1  0  0  0  0
 47 57  1  0  0  0  0
 47 63  1  0  0  0  0
 47124  1  0  0  0  0
 49 61  1  0  0  0  0
 49125  1  0  0  0  0
 49126  1  0  0  0  0
 50 62  1  0  0  0  0
 50127  1  0  0  0  0
 50128  1  0  0  0  0
 51132  1  0  0  0  0
 51133  1  0  0  0  0
 51134  1  0  0  0  0
 52129  1  0  0  0  0
 52130  1  0  0  0  0
 52131  1  0  0  0  0
 54 59  1  0  0  0  0
 54 68  2  0  0  0  0
 57 70  1  0  0  0  0
 57137  1  0  0  0  0
 57138  1  0  0  0  0
 58 74  1  0  0  0  0
 58139  1  0  0  0  0
 58140  1  0  0  0  0
 59 67  1  0  0  0  0
 59 73  2  0  0  0  0
 60 65  1  0  0  0  0
 61142  1  0  0  0  0
 61143  1  0  0  0  0
 62144  1  0  0  0  0
 62145  1  0  0  0  0
 64 71  1  0  0  0  0
 64 77  1  0  0  0  0
 64146  1  0  0  0  0
 65147  1  0  0  0  0
 65148  1  0  0  0  0
 66 69  1  0  0  0  0
 66 72  1  0  0  0  0
 66150  1  0  0  0  0
 67 75  2  0  0  0  0
 68151  1  0  0  0  0
 70 81  2  0  0  0  0
 70 82  1  0  0  0  0
 71 78  1  0  0  0  0
 71154  1  0  0  0  0
 71155  1  0  0  0  0
 72 85  1  0  0  0  0
 72156  1  0  0  0  0
 72157  1  0  0  0  0
 73 80  1  0  0  0  0
 73158  1  0  0  0  0
 75 83  1  0  0  0  0
 75161  1  0  0  0  0
 76 79  1  0  0  0  0
 76 84  1  0  0  0  0
 76163  1  0  0  0  0
 78 90  2  0  0  0  0
 78 91  1  0  0  0  0
 80 83  2  0  0  0  0
 80164  1  0  0  0  0
 81 88  1  0  0  0  0
 81165  1  0  0  0  0
 82 89  2  0  0  0  0
 82166  1  0  0  0  0
 83167  1  0  0  0  0
 84 92  1  0  0  0  0
 84168  1  0  0  0  0
 84169  1  0  0  0  0
 86 94  1  0  0  0  0
 88 93  2  0  0  0  0
 88170  1  0  0  0  0
 89 93  1  0  0  0  0
 89171  1  0  0  0  0
 90 95  1  0  0  0  0
 90172  1  0  0  0  0
 91 96  2  0  0  0  0
 91173  1  0  0  0  0
 92 99  2  0  0  0  0
 92100  1  0  0  0  0
 93177  1  0  0  0  0
 94180  1  0  0  0  0
 94181  1  0  0  0  0
 94182  1  0  0  0  0
 95 97  2  0  0  0  0
 95183  1  0  0  0  0
 96 97  1  0  0  0  0
 96184  1  0  0  0  0
 98103  1  0  0  0  0
 99101  1  0  0  0  0
 99187  1  0  0  0  0
100102  2  0  0  0  0
100188  1  0  0  0  0
101104  2  0  0  0  0
101192  1  0  0  0  0
102104  1  0  0  0  0
102193  1  0  0  0  0
103194  1  0  0  0  0
103195  1  0  0  0  0
103196  1  0  0  0  0
M  END
> <PUBCHEM_COMPOUND_CID>
118735680

> <PUBCHEM_COMPOUND_CANONICALIZED>
0

> <PUBCHEM_CACTVS_COMPLEXITY>
2920

> <PUBCHEM_CACTVS_HBOND_ACCEPTOR>
17

> <PUBCHEM_CACTVS_HBOND_DONOR>
20

> <PUBCHEM_CACTVS_ROTATABLE_BOND>
44

> <PUBCHEM_CACTVS_SUBSKEYS>
AAADcfB//gAAAAAAAAAAAAAAAAAAAWAAAAAwYMGAAAAAAFgB9AAAHgAQCAAADSzBngQ/xvLJkgCoAzV3dACCgCCxIiAJ2aG+bJiIZvrC2bOUcAhk1hPI2AedyeCOoAAAAAACAABAAAAAAAQAAAAAAAAAAA==

> <PUBCHEM_IUPAC_INCHI>
InChI=1S/C70H94N18O16/c1-38(2)29-52(65(100)83-50(18-12-28-77-70(74)75)63(98)84-51(61(73)96)30-42-19-23-45(91)24-20-42)81-60(95)37-79-62(97)53(31-41-13-6-5-7-14-41)85-64(99)49(17-10-11-27-76-39(3)89)82-68(103)56(34-58(71)93)88-67(102)55(33-44-36-78-48-16-9-8-15-47(44)48)86-69(104)57(35-59(72)94)87-66(101)54(80-40(4)90)32-43-21-25-46(92)26-22-43/h5-9,13-16,19-26,36,38,49-57,78,91-92H,10-12,17-18,27-35,37H2,1-4H3,(H2,71,93)(H2,72,94)(H2,73,96)(H,76,89)(H,79,97)(H,80,90)(H,81,95)(H,82,103)(H,83,100)(H,84,98)(H,85,99)(H,86,104)(H,87,101)(H,88,102)(H4,74,75,77)/t49-,50-,51-,52-,53-,54-,55-,56-,57-/m0/s1

> <PUBCHEM_IUPAC_INCHIKEY>
DGICTLYBQXKXJM-WIVDLTSQSA-N

> <PUBCHEM_XLOGP3>
-0.8

> <PUBCHEM_EXACT_MASS>
1442.71

> <PUBCHEM_MOLECULAR_FORMULA>
C70H94N18O16

> <PUBCHEM_MOLECULAR_WEIGHT>
1443.632

> <PUBCHEM_OPENEYE_CAN_SMILES>
CC(C)CC(C(=O)NC(CCCNC(=N)N)C(=O)NC(CC1=CC=C(C=C1)O)C(=O)N)NC(=O)CNC(=O)C(CC2=CC=CC=C2)NC(=O)C(CCCCNC(=O)C)NC(=O)C(CC(=O)N)NC(=O)C(CC3=CNC4=CC=CC=C43)NC(=O)C(CC(=O)N)NC(=O)C(CC5=CC=C(C=C5)O)NC(=O)C

> <PUBCHEM_OPENEYE_ISO_SMILES>
CC(C)C[C@@H](C(=O)N[C@@H](CCCNC(=N)N)C(=O)N[C@@H](CC1=CC=C(C=C1)O)C(=O)N)NC(=O)CNC(=O)[C@H](CC2=CC=CC=C2)NC(=O)[C@H](CCCCNC(=O)C)NC(=O)[C@H](CC(=O)N)NC(=O)[C@H](CC3=CNC4=CC=CC=C43)NC(=O)[C@H](CC(=O)N)NC(=O)[C@H](CC5=CC=C(C=C5)O)NC(=O)C

> <PUBCHEM_CACTVS_TPSA>
568

> <PUBCHEM_MONOISOTOPIC_WEIGHT>
1442.71

> <PUBCHEM_TOTAL_CHARGE>
0

> <PUBCHEM_HEAVY_ATOM_COUNT>
104

> <PUBCHEM_ATOM_DEF_STEREO_COUNT>
9

> <PUBCHEM_ATOM_UDEF_STEREO_COUNT>
0

> <PUBCHEM_BOND_DEF_STEREO_COUNT>
0

> <PUBCHEM_BOND_UDEF_STEREO_COUNT>
0

> <PUBCHEM_ISOTOPIC_ATOM_COUNT>
0

> <PUBCHEM_COMPONENT_COUNT>
1

> <PUBCHEM_CACTVS_TAUTO_COUNT>
1000

> <PUBCHEM_COORDINATE_TYPE>
1
5
255

> <PUBCHEM_BONDANNOTATIONS>
100  102  8
101  104  8
102  104  8
40  17  6
38  18  5
35  19  6
47  20  6
45  21  6
44  22  6
64  23  5
25  67  8
25  68  8
66  26  6
76  30  5
54  59  8
54  68  8
59  67  8
59  73  8
67  75  8
70  81  8
70  82  8
73  80  8
75  83  8
78  90  8
78  91  8
80  83  8
81  88  8
82  89  8
88  93  8
89  93  8
90  95  8
91  96  8
92  100  8
92  99  8
95  97  8
96  97  8
99  101  8

$$$$
