118735681
  -OEChem-03161706412D

237241  0     1  0  0  0  0  0999 V2000
   17.8740    1.2990    0.0000 O   0  0  0  0  0  0  0  0  0  0  0  0
   20.2813   -5.2740    0.0000 O   0  0  0  0  0  0  0  0  0  0  0  0
   17.2062    2.0433    0.0000 O   0  0  0  0  0  0  0  0  0  0  0  0
    6.9244    9.6120    0.0000 O   0  0  0  0  0  0  0  0  0  0  0  0
   19.5669   -1.8844    0.0000 O   0  0  0  0  0  0  0  0  0  0  0  0
    8.8349   12.6698    0.0000 O   0  0  0  0  0  0  0  0  0  0  0  0
   11.1956    8.7421    0.0000 O   0  0  0  0  0  0  0  0  0  0  0  0
   15.5133    5.2268    0.0000 O   0  0  0  0  0  0  0  0  0  0  0  0
   13.1991    6.5091    0.0000 O   0  0  0  0  0  0  0  0  0  0  0  0
   12.2671    3.6576    0.0000 O   0  0  0  0  0  0  0  0  0  0  0  0
    9.2851    5.6843    0.0000 O   0  0  0  0  0  0  0  0  0  0  0  0
   16.4918    5.4330    0.0000 O   0  0  0  0  0  0  0  0  0  0  0  0
   20.2348   -2.6287    0.0000 O   0  0  0  0  0  0  0  0  0  0  0  0
    7.1420   15.8532    0.0000 O   0  0  0  0  0  0  0  0  0  0  0  0
   25.0808    1.0477    0.0000 O   0  0  0  0  0  0  0  0  0  0  0  0
    9.7204   18.1667    0.0000 O   0  0  0  0  0  0  0  0  0  0  0  0
   16.5849    0.1423    0.0000 N   0  0  0  0  0  0  0  0  0  0  0  0
   19.2097   -0.1896    0.0000 N   0  0  0  0  0  0  0  0  0  0  0  0
   18.6349   -4.7360    0.0000 N   0  0  0  0  0  0  0  0  0  0  0  0
    8.2136   10.7687    0.0000 N   0  0  0  0  0  0  0  0  0  0  0  0
    9.5492    9.2801    0.0000 N   0  0  0  0  0  0  0  0  0  0  0  0
   15.5598    2.5814    0.0000 N   0  0  0  0  0  0  0  0  0  0  0  0
   14.6279   -1.8796    0.0000 N   0  0  0  0  0  0  0  0  0  0  0  0
    7.1885   13.2079    0.0000 N   0  0  0  0  0  0  0  0  0  0  0  0
   21.5239   -1.4720    0.0000 N   0  0  0  0  0  0  0  0  0  0  0  0
   14.2242    4.0700    0.0000 N   0  0  0  0  0  0  0  0  0  0  0  0
   11.9100    5.3524    0.0000 N   0  0  0  0  0  0  0  0  0  0  0  0
   10.5743    6.8410    0.0000 N   0  0  0  0  0  0  0  0  0  0  0  0
    4.2530   12.5892    0.0000 N   0  0  0  0  0  0  0  0  0  0  0  0
   18.1382    4.8949    0.0000 N   0  0  0  0  0  0  0  0  0  0  0  0
    5.8528   14.6965    0.0000 N   0  0  0  0  0  0  0  0  0  0  0  0
    2.6067   13.1273    0.0000 N   0  0  0  0  0  0  0  0  0  0  0  0
    2.9639   11.4325    0.0000 N   0  0  0  0  0  0  0  0  0  0  0  0
   20.0636  -11.5152    0.0000 C   0  0  0  0  0  0  0  0  0  0  0  0
   20.7315  -12.2595    0.0000 C   0  0  0  0  0  0  0  0  0  0  0  0
   20.3743  -10.5647    0.0000 C   0  0  0  0  0  0  0  0  0  0  0  0
   20.4208  -13.2101    0.0000 C   0  0  0  0  0  0  0  0  0  0  0  0
   19.7065   -9.8204    0.0000 C   0  0  0  0  0  0  0  0  0  0  0  0
   21.0887  -13.9544    0.0000 C   0  0  0  0  0  0  0  0  0  0  0  0
   20.0171   -8.8699    0.0000 C   0  0  0  0  0  0  0  0  0  0  0  0
   20.7780  -14.9049    0.0000 C   0  0  0  0  0  0  0  0  0  0  0  0
   19.3493   -8.1256    0.0000 C   0  0  0  0  0  0  0  0  0  0  0  0
   21.4459  -15.6492    0.0000 C   0  0  0  0  0  0  0  0  0  0  0  0
   19.6599   -7.1751    0.0000 C   0  0  0  0  0  0  0  0  0  0  0  0
   18.2312   -0.3958    0.0000 C   0  0  1  0  0  0  0  0  0  0  0  0
   17.9206   -1.3463    0.0000 C   0  0  0  0  0  0  0  0  0  0  0  0
   18.5884   -2.0906    0.0000 C   0  0  0  0  0  0  0  0  0  0  0  0
   21.1352  -16.5997    0.0000 C   0  0  0  0  0  0  0  0  0  0  0  0
   15.9170    0.8866    0.0000 C   0  0  1  0  0  0  0  0  0  0  0  0
   18.2777   -3.0411    0.0000 C   0  0  0  0  0  0  0  0  0  0  0  0
   18.9921   -6.4308    0.0000 C   0  0  0  0  0  0  0  0  0  0  0  0
   14.9385    0.6804    0.0000 C   0  0  0  0  0  0  0  0  0  0  0  0
   17.5634    0.3485    0.0000 C   0  0  0  0  0  0  0  0  0  0  0  0
   18.9456   -3.7854    0.0000 C   0  0  0  0  0  0  0  0  0  0  0  0
    8.5708    9.0739    0.0000 C   0  0  1  0  0  0  0  0  0  0  0  0
    8.2601    8.1234    0.0000 C   0  0  0  0  0  0  0  0  0  0  0  0
    7.2816    7.9172    0.0000 C   0  0  0  0  0  0  0  0  0  0  0  0
   21.8030  -17.3440    0.0000 C   0  0  0  0  0  0  0  0  0  0  0  0
   14.6279   -0.2701    0.0000 C   0  0  0  0  0  0  0  0  0  0  0  0
    7.5457   11.5130    0.0000 C   0  0  1  0  0  0  0  0  0  0  0  0
   19.3028   -5.4803    0.0000 C   0  0  0  0  0  0  0  0  0  0  0  0
   16.2277    1.8371    0.0000 C   0  0  0  0  0  0  0  0  0  0  0  0
    6.5672   11.3068    0.0000 C   0  0  0  0  0  0  0  0  0  0  0  0
    7.9029    9.8182    0.0000 C   0  0  0  0  0  0  0  0  0  0  0  0
   20.8561   -0.7277    0.0000 C   0  0  2  0  0  0  0  0  0  0  0  0
   13.6816   -0.5749    0.0000 C   0  0  0  0  0  0  0  0  0  0  0  0
   19.8776   -0.9339    0.0000 C   0  0  0  0  0  0  0  0  0  0  0  0
   15.8705    3.5319    0.0000 C   0  0  1  0  0  0  0  0  0  0  0  0
    5.8994   12.0511    0.0000 C   0  0  0  0  0  0  0  0  0  0  0  0
    6.9709    6.9666    0.0000 C   0  0  0  0  0  0  0  0  0  0  0  0
    6.6137    8.6615    0.0000 C   0  0  0  0  0  0  0  0  0  0  0  0
   15.2115   -1.0749    0.0000 C   0  0  0  0  0  0  0  0  0  0  0  0
   13.6816   -1.5749    0.0000 C   0  0  0  0  0  0  0  0  0  0  0  0
   21.1667    0.2229    0.0000 C   0  0  0  0  0  0  0  0  0  0  0  0
   21.4924  -18.2945    0.0000 C   0  0  0  0  0  0  0  0  0  0  0  0
    7.8564   12.4636    0.0000 C   0  0  0  0  0  0  0  0  0  0  0  0
   16.8490    3.7382    0.0000 C   0  0  0  0  0  0  0  0  0  0  0  0
    4.9209   11.8449    0.0000 C   0  0  0  0  0  0  0  0  0  0  0  0
   12.8156   -0.0749    0.0000 C   0  0  0  0  0  0  0  0  0  0  0  0
    7.4992   14.1584    0.0000 C   0  0  1  0  0  0  0  0  0  0  0  0
   15.2027    4.2762    0.0000 C   0  0  0  0  0  0  0  0  0  0  0  0
   10.2171    8.5358    0.0000 C   0  0  0  0  0  0  0  0  0  0  0  0
   12.8156   -2.0749    0.0000 C   0  0  0  0  0  0  0  0  0  0  0  0
   22.1452    0.4291    0.0000 C   0  0  0  0  0  0  0  0  0  0  0  0
   13.5563    4.8143    0.0000 C   0  0  2  0  0  0  0  0  0  0  0  0
    9.9064    7.5853    0.0000 C   0  0  0  0  0  0  0  0  0  0  0  0
    8.4777   14.3646    0.0000 C   0  0  0  0  0  0  0  0  0  0  0  0
   10.9315    5.1462    0.0000 C   0  0  1  0  0  0  0  0  0  0  0  0
   11.9496   -0.5749    0.0000 C   0  0  0  0  0  0  0  0  0  0  0  0
   11.9496   -1.5749    0.0000 C   0  0  0  0  0  0  0  0  0  0  0  0
   12.5778    4.6081    0.0000 C   0  0  0  0  0  0  0  0  0  0  0  0
   10.6208    4.1957    0.0000 C   0  0  0  0  0  0  0  0  0  0  0  0
   10.2636    5.8905    0.0000 C   0  0  0  0  0  0  0  0  0  0  0  0
   17.1597    4.6887    0.0000 C   0  0  0  0  0  0  0  0  0  0  0  0
   21.2133   -2.4225    0.0000 C   0  0  0  0  0  0  0  0  0  0  0  0
    6.8314   14.9027    0.0000 C   0  0  0  0  0  0  0  0  0  0  0  0
   13.8670    5.7648    0.0000 C   0  0  0  0  0  0  0  0  0  0  0  0
    8.7884   15.3151    0.0000 C   0  0  0  0  0  0  0  0  0  0  0  0
   22.8131   -0.3152    0.0000 C   0  0  0  0  0  0  0  0  0  0  0  0
   22.4559    1.3796    0.0000 C   0  0  0  0  0  0  0  0  0  0  0  0
    9.6423    3.9894    0.0000 C   0  0  0  0  0  0  0  0  0  0  0  0
   23.7916   -0.1090    0.0000 C   0  0  0  0  0  0  0  0  0  0  0  0
   23.4344    1.5858    0.0000 C   0  0  0  0  0  0  0  0  0  0  0  0
   21.8811   -3.1668    0.0000 C   0  0  0  0  0  0  0  0  0  0  0  0
    3.2745   12.3830    0.0000 C   0  0  0  0  0  0  0  0  0  0  0  0
    8.1205   16.0594    0.0000 C   0  0  0  0  0  0  0  0  0  0  0  0
    9.7669   15.5213    0.0000 C   0  0  0  0  0  0  0  0  0  0  0  0
   24.1023    0.8415    0.0000 C   0  0  0  0  0  0  0  0  0  0  0  0
    8.9744    4.7338    0.0000 C   0  0  0  0  0  0  0  0  0  0  0  0
    9.3316    3.0389    0.0000 C   0  0  0  0  0  0  0  0  0  0  0  0
    8.4312   17.0099    0.0000 C   0  0  0  0  0  0  0  0  0  0  0  0
   10.0775   16.4719    0.0000 C   0  0  0  0  0  0  0  0  0  0  0  0
    9.4097   17.2162    0.0000 C   0  0  0  0  0  0  0  0  0  0  0  0
    7.9959    4.5275    0.0000 C   0  0  0  0  0  0  0  0  0  0  0  0
    8.3531    2.8327    0.0000 C   0  0  0  0  0  0  0  0  0  0  0  0
    7.6853    3.5770    0.0000 C   0  0  0  0  0  0  0  0  0  0  0  0
   19.5167  -11.2232    0.0000 H   0  0  0  0  0  0  0  0  0  0  0  0
   19.6811  -12.0031    0.0000 H   0  0  0  0  0  0  0  0  0  0  0  0
   21.2784  -12.5516    0.0000 H   0  0  0  0  0  0  0  0  0  0  0  0
   21.1140  -11.7716    0.0000 H   0  0  0  0  0  0  0  0  0  0  0  0
   20.9212  -10.8567    0.0000 H   0  0  0  0  0  0  0  0  0  0  0  0
   20.7569  -10.0768    0.0000 H   0  0  0  0  0  0  0  0  0  0  0  0
   19.8739  -12.9180    0.0000 H   0  0  0  0  0  0  0  0  0  0  0  0
   20.0383  -13.6980    0.0000 H   0  0  0  0  0  0  0  0  0  0  0  0
   19.1595   -9.5284    0.0000 H   0  0  0  0  0  0  0  0  0  0  0  0
   19.3239  -10.3083    0.0000 H   0  0  0  0  0  0  0  0  0  0  0  0
   21.6356  -14.2464    0.0000 H   0  0  0  0  0  0  0  0  0  0  0  0
   21.4712  -13.4665    0.0000 H   0  0  0  0  0  0  0  0  0  0  0  0
   20.5640   -9.1619    0.0000 H   0  0  0  0  0  0  0  0  0  0  0  0
   20.3997   -8.3820    0.0000 H   0  0  0  0  0  0  0  0  0  0  0  0
   20.2311  -14.6129    0.0000 H   0  0  0  0  0  0  0  0  0  0  0  0
   20.3955  -15.3928    0.0000 H   0  0  0  0  0  0  0  0  0  0  0  0
   18.8024   -7.8336    0.0000 H   0  0  0  0  0  0  0  0  0  0  0  0
   18.9667   -8.6135    0.0000 H   0  0  0  0  0  0  0  0  0  0  0  0
   21.9928  -15.9412    0.0000 H   0  0  0  0  0  0  0  0  0  0  0  0
   21.8284  -15.1613    0.0000 H   0  0  0  0  0  0  0  0  0  0  0  0
   20.2069   -7.4671    0.0000 H   0  0  0  0  0  0  0  0  0  0  0  0
   20.0425   -6.6872    0.0000 H   0  0  0  0  0  0  0  0  0  0  0  0
   18.6453   -0.8573    0.0000 H   0  0  0  0  0  0  0  0  0  0  0  0
   17.3736   -1.0543    0.0000 H   0  0  0  0  0  0  0  0  0  0  0  0
   17.5380   -1.8342    0.0000 H   0  0  0  0  0  0  0  0  0  0  0  0
   19.1353   -2.3826    0.0000 H   0  0  0  0  0  0  0  0  0  0  0  0
   18.9710   -1.6027    0.0000 H   0  0  0  0  0  0  0  0  0  0  0  0
   20.5883  -16.3077    0.0000 H   0  0  0  0  0  0  0  0  0  0  0  0
   20.7526  -17.0876    0.0000 H   0  0  0  0  0  0  0  0  0  0  0  0
   15.7244    0.2973    0.0000 H   0  0  0  0  0  0  0  0  0  0  0  0
   17.7308   -2.7491    0.0000 H   0  0  0  0  0  0  0  0  0  0  0  0
   17.8952   -3.5290    0.0000 H   0  0  0  0  0  0  0  0  0  0  0  0
   18.4452   -6.1388    0.0000 H   0  0  0  0  0  0  0  0  0  0  0  0
   18.6095   -6.9187    0.0000 H   0  0  0  0  0  0  0  0  0  0  0  0
   14.9180    1.3000    0.0000 H   0  0  0  0  0  0  0  0  0  0  0  0
   14.3247    0.7677    0.0000 H   0  0  0  0  0  0  0  0  0  0  0  0
    8.7634    9.6632    0.0000 H   0  0  0  0  0  0  0  0  0  0  0  0
   19.4925   -4.0775    0.0000 H   0  0  0  0  0  0  0  0  0  0  0  0
   19.3281   -3.2975    0.0000 H   0  0  0  0  0  0  0  0  0  0  0  0
    8.2806    7.5037    0.0000 H   0  0  0  0  0  0  0  0  0  0  0  0
    8.8739    8.0360    0.0000 H   0  0  0  0  0  0  0  0  0  0  0  0
   16.3923   -0.4470    0.0000 H   0  0  0  0  0  0  0  0  0  0  0  0
    7.4742    8.5065    0.0000 H   0  0  0  0  0  0  0  0  0  0  0  0
   19.4023    0.3997    0.0000 H   0  0  0  0  0  0  0  0  0  0  0  0
   22.3500  -17.6360    0.0000 H   0  0  0  0  0  0  0  0  0  0  0  0
   22.1856  -16.8561    0.0000 H   0  0  0  0  0  0  0  0  0  0  0  0
    8.1524   11.6409    0.0000 H   0  0  0  0  0  0  0  0  0  0  0  0
   18.0282   -4.8638    0.0000 H   0  0  0  0  0  0  0  0  0  0  0  0
    6.0409   10.9792    0.0000 H   0  0  0  0  0  0  0  0  0  0  0  0
    6.7985   10.7316    0.0000 H   0  0  0  0  0  0  0  0  0  0  0  0
   21.4627   -0.5998    0.0000 H   0  0  0  0  0  0  0  0  0  0  0  0
    8.8202   10.8966    0.0000 H   0  0  0  0  0  0  0  0  0  0  0  0
   15.2638    3.4041    0.0000 H   0  0  0  0  0  0  0  0  0  0  0  0
    6.4257   12.3788    0.0000 H   0  0  0  0  0  0  0  0  0  0  0  0
    5.6681   12.6264    0.0000 H   0  0  0  0  0  0  0  0  0  0  0  0
    9.7419    9.8694    0.0000 H   0  0  0  0  0  0  0  0  0  0  0  0
    6.3816    7.1593    0.0000 H   0  0  0  0  0  0  0  0  0  0  0  0
    6.7783    6.3773    0.0000 H   0  0  0  0  0  0  0  0  0  0  0  0
    7.5602    6.7740    0.0000 H   0  0  0  0  0  0  0  0  0  0  0  0
    7.0752    9.0755    0.0000 H   0  0  0  0  0  0  0  0  0  0  0  0
    6.1997    9.1229    0.0000 H   0  0  0  0  0  0  0  0  0  0  0  0
    6.1523    8.2474    0.0000 H   0  0  0  0  0  0  0  0  0  0  0  0
   14.9532    2.4536    0.0000 H   0  0  0  0  0  0  0  0  0  0  0  0
   15.8315   -1.0749    0.0000 H   0  0  0  0  0  0  0  0  0  0  0  0
   21.1462    0.8425    0.0000 H   0  0  0  0  0  0  0  0  0  0  0  0
   20.5529    0.3102    0.0000 H   0  0  0  0  0  0  0  0  0  0  0  0
   20.9030  -18.1019    0.0000 H   0  0  0  0  0  0  0  0  0  0  0  0
   21.2998  -18.8839    0.0000 H   0  0  0  0  0  0  0  0  0  0  0  0
   22.0817  -18.4871    0.0000 H   0  0  0  0  0  0  0  0  0  0  0  0
   14.8205   -2.4689    0.0000 H   0  0  0  0  0  0  0  0  0  0  0  0
    4.3945   11.5173    0.0000 H   0  0  0  0  0  0  0  0  0  0  0  0
    5.1521   11.2696    0.0000 H   0  0  0  0  0  0  0  0  0  0  0  0
   16.8696    3.1185    0.0000 H   0  0  0  0  0  0  0  0  0  0  0  0
   17.4628    3.6508    0.0000 H   0  0  0  0  0  0  0  0  0  0  0  0
   12.8156    0.5451    0.0000 H   0  0  0  0  0  0  0  0  0  0  0  0
    7.9133   13.6969    0.0000 H   0  0  0  0  0  0  0  0  0  0  0  0
    6.5819   13.0800    0.0000 H   0  0  0  0  0  0  0  0  0  0  0  0
   22.1306   -1.3441    0.0000 H   0  0  0  0  0  0  0  0  0  0  0  0
   12.8156   -2.6949    0.0000 H   0  0  0  0  0  0  0  0  0  0  0  0
   13.3637    4.2250    0.0000 H   0  0  0  0  0  0  0  0  0  0  0  0
    9.3595    7.8773    0.0000 H   0  0  0  0  0  0  0  0  0  0  0  0
    9.5239    7.0974    0.0000 H   0  0  0  0  0  0  0  0  0  0  0  0
    8.4983   13.7449    0.0000 H   0  0  0  0  0  0  0  0  0  0  0  0
    9.0915   14.2772    0.0000 H   0  0  0  0  0  0  0  0  0  0  0  0
   11.1241    5.7355    0.0000 H   0  0  0  0  0  0  0  0  0  0  0  0
   14.0315    3.4807    0.0000 H   0  0  0  0  0  0  0  0  0  0  0  0
   11.4127   -0.2649    0.0000 H   0  0  0  0  0  0  0  0  0  0  0  0
   11.4127   -1.8849    0.0000 H   0  0  0  0  0  0  0  0  0  0  0  0
   10.6414    3.5760    0.0000 H   0  0  0  0  0  0  0  0  0  0  0  0
   11.2346    4.1083    0.0000 H   0  0  0  0  0  0  0  0  0  0  0  0
   12.1026    5.9417    0.0000 H   0  0  0  0  0  0  0  0  0  0  0  0
   11.1810    6.9689    0.0000 H   0  0  0  0  0  0  0  0  0  0  0  0
    4.4456   13.1785    0.0000 H   0  0  0  0  0  0  0  0  0  0  0  0
   14.4139    5.4728    0.0000 H   0  0  0  0  0  0  0  0  0  0  0  0
   14.2495    6.2527    0.0000 H   0  0  0  0  0  0  0  0  0  0  0  0
   22.6205   -0.9045    0.0000 H   0  0  0  0  0  0  0  0  0  0  0  0
   22.0418    1.8411    0.0000 H   0  0  0  0  0  0  0  0  0  0  0  0
   24.2057   -0.5705    0.0000 H   0  0  0  0  0  0  0  0  0  0  0  0
   23.6270    2.1751    0.0000 H   0  0  0  0  0  0  0  0  0  0  0  0
   21.4196   -3.5808    0.0000 H   0  0  0  0  0  0  0  0  0  0  0  0
   22.2952   -3.6282    0.0000 H   0  0  0  0  0  0  0  0  0  0  0  0
   22.3426   -2.7527    0.0000 H   0  0  0  0  0  0  0  0  0  0  0  0
    7.5138   15.9316    0.0000 H   0  0  0  0  0  0  0  0  0  0  0  0
   10.1809   15.0599    0.0000 H   0  0  0  0  0  0  0  0  0  0  0  0
   18.3308    5.4842    0.0000 H   0  0  0  0  0  0  0  0  0  0  0  0
   18.5522    4.4334    0.0000 H   0  0  0  0  0  0  0  0  0  0  0  0
    5.4388   15.1579    0.0000 H   0  0  0  0  0  0  0  0  0  0  0  0
    5.6602   14.1071    0.0000 H   0  0  0  0  0  0  0  0  0  0  0  0
    9.1671    5.3231    0.0000 H   0  0  0  0  0  0  0  0  0  0  0  0
    9.7457    2.5775    0.0000 H   0  0  0  0  0  0  0  0  0  0  0  0
   13.3917    7.0985    0.0000 H   0  0  0  0  0  0  0  0  0  0  0  0
    8.0171   17.4714    0.0000 H   0  0  0  0  0  0  0  0  0  0  0  0
   10.6842   16.5997    0.0000 H   0  0  0  0  0  0  0  0  0  0  0  0
    7.5819    4.9890    0.0000 H   0  0  0  0  0  0  0  0  0  0  0  0
    8.1605    2.2434    0.0000 H   0  0  0  0  0  0  0  0  0  0  0  0
    2.0000   12.9994    0.0000 H   0  0  0  0  0  0  0  0  0  0  0  0
    2.7993   13.7166    0.0000 H   0  0  0  0  0  0  0  0  0  0  0  0
    7.0786    3.4492    0.0000 H   0  0  0  0  0  0  0  0  0  0  0  0
    2.3572   11.3046    0.0000 H   0  0  0  0  0  0  0  0  0  0  0  0
   25.4948    0.5863    0.0000 H   0  0  0  0  0  0  0  0  0  0  0  0
   10.3270   18.2945    0.0000 H   0  0  0  0  0  0  0  0  0  0  0  0
  1 53  2  0  0  0  0
  2 61  2  0  0  0  0
  3 62  2  0  0  0  0
  4 64  2  0  0  0  0
  5 67  2  0  0  0  0
  6 76  2  0  0  0  0
  7 82  2  0  0  0  0
  8 81  2  0  0  0  0
  9 97  1  0  0  0  0
  9227  1  0  0  0  0
 10 91  2  0  0  0  0
 11 93  2  0  0  0  0
 12 94  2  0  0  0  0
 13 95  2  0  0  0  0
 14 96  2  0  0  0  0
 15108  1  0  0  0  0
 15236  1  0  0  0  0
 16113  1  0  0  0  0
 16237  1  0  0  0  0
 49 17  1  1  0  0  0
 17 53  1  0  0  0  0
 17158  1  0  0  0  0
 45 18  1  1  0  0  0
 18 67  1  0  0  0  0
 18160  1  0  0  0  0
 19 54  1  0  0  0  0
 19 61  1  0  0  0  0
 19164  1  0  0  0  0
 60 20  1  1  0  0  0
 20 64  1  0  0  0  0
 20168  1  0  0  0  0
 55 21  1  1  0  0  0
 21 82  1  0  0  0  0
 21172  1  0  0  0  0
 22 62  1  0  0  0  0
 68 22  1  6  0  0  0
 22179  1  0  0  0  0
 23 72  1  0  0  0  0
 23 73  1  0  0  0  0
 23186  1  0  0  0  0
 24 76  1  0  0  0  0
 80 24  1  6  0  0  0
 24193  1  0  0  0  0
 65 25  1  6  0  0  0
 25 95  1  0  0  0  0
 25194  1  0  0  0  0
 26 81  1  0  0  0  0
 85 26  1  6  0  0  0
 26202  1  0  0  0  0
 88 27  1  1  0  0  0
 27 91  1  0  0  0  0
 27207  1  0  0  0  0
 28 86  1  0  0  0  0
 28 93  1  0  0  0  0
 28208  1  0  0  0  0
 29 78  1  0  0  0  0
 29105  1  0  0  0  0
 29209  1  0  0  0  0
 30 94  1  0  0  0  0
 30221  1  0  0  0  0
 30222  1  0  0  0  0
 31 96  1  0  0  0  0
 31223  1  0  0  0  0
 31224  1  0  0  0  0
 32105  1  0  0  0  0
 32232  1  0  0  0  0
 32233  1  0  0  0  0
 33105  2  0  0  0  0
 33235  1  0  0  0  0
 34 35  1  0  0  0  0
 34 36  1  0  0  0  0
 34117  1  0  0  0  0
 34118  1  0  0  0  0
 35 37  1  0  0  0  0
 35119  1  0  0  0  0
 35120  1  0  0  0  0
 36 38  1  0  0  0  0
 36121  1  0  0  0  0
 36122  1  0  0  0  0
 37 39  1  0  0  0  0
 37123  1  0  0  0  0
 37124  1  0  0  0  0
 38 40  1  0  0  0  0
 38125  1  0  0  0  0
 38126  1  0  0  0  0
 39 41  1  0  0  0  0
 39127  1  0  0  0  0
 39128  1  0  0  0  0
 40 42  1  0  0  0  0
 40129  1  0  0  0  0
 40130  1  0  0  0  0
 41 43  1  0  0  0  0
 41131  1  0  0  0  0
 41132  1  0  0  0  0
 42 44  1  0  0  0  0
 42133  1  0  0  0  0
 42134  1  0  0  0  0
 43 48  1  0  0  0  0
 43135  1  0  0  0  0
 43136  1  0  0  0  0
 44 51  1  0  0  0  0
 44137  1  0  0  0  0
 44138  1  0  0  0  0
 45 46  1  0  0  0  0
 45 53  1  0  0  0  0
 45139  1  0  0  0  0
 46 47  1  0  0  0  0
 46140  1  0  0  0  0
 46141  1  0  0  0  0
 47 50  1  0  0  0  0
 47142  1  0  0  0  0
 47143  1  0  0  0  0
 48 58  1  0  0  0  0
 48144  1  0  0  0  0
 48145  1  0  0  0  0
 49 52  1  0  0  0  0
 49 62  1  0  0  0  0
 49146  1  0  0  0  0
 50 54  1  0  0  0  0
 50147  1  0  0  0  0
 50148  1  0  0  0  0
 51 61  1  0  0  0  0
 51149  1  0  0  0  0
 51150  1  0  0  0  0
 52 59  1  0  0  0  0
 52151  1  0  0  0  0
 52152  1  0  0  0  0
 54154  1  0  0  0  0
 54155  1  0  0  0  0
 55 56  1  0  0  0  0
 55 64  1  0  0  0  0
 55153  1  0  0  0  0
 56 57  1  0  0  0  0
 56156  1  0  0  0  0
 56157  1  0  0  0  0
 57 70  1  0  0  0  0
 57 71  1  0  0  0  0
 57159  1  0  0  0  0
 58 75  1  0  0  0  0
 58161  1  0  0  0  0
 58162  1  0  0  0  0
 59 66  1  0  0  0  0
 59 72  2  0  0  0  0
 60 63  1  0  0  0  0
 60 76  1  0  0  0  0
 60163  1  0  0  0  0
 63 69  1  0  0  0  0
 63165  1  0  0  0  0
 63166  1  0  0  0  0
 65 67  1  0  0  0  0
 65 74  1  0  0  0  0
 65167  1  0  0  0  0
 66 73  1  0  0  0  0
 66 79  2  0  0  0  0
 68 77  1  0  0  0  0
 68 81  1  0  0  0  0
 68169  1  0  0  0  0
 69 78  1  0  0  0  0
 69170  1  0  0  0  0
 69171  1  0  0  0  0
 70173  1  0  0  0  0
 70174  1  0  0  0  0
 70175  1  0  0  0  0
 71176  1  0  0  0  0
 71177  1  0  0  0  0
 71178  1  0  0  0  0
 72180  1  0  0  0  0
 73 83  2  0  0  0  0
 74 84  1  0  0  0  0
 74181  1  0  0  0  0
 74182  1  0  0  0  0
 75183  1  0  0  0  0
 75184  1  0  0  0  0
 75185  1  0  0  0  0
 77 94  1  0  0  0  0
 77189  1  0  0  0  0
 77190  1  0  0  0  0
 78187  1  0  0  0  0
 78188  1  0  0  0  0
 79 89  1  0  0  0  0
 79191  1  0  0  0  0
 80 87  1  0  0  0  0
 80 96  1  0  0  0  0
 80192  1  0  0  0  0
 82 86  1  0  0  0  0
 83 90  1  0  0  0  0
 83195  1  0  0  0  0
 84 99  2  0  0  0  0
 84100  1  0  0  0  0
 85 91  1  0  0  0  0
 85 97  1  0  0  0  0
 85196  1  0  0  0  0
 86197  1  0  0  0  0
 86198  1  0  0  0  0
 87 98  1  0  0  0  0
 87199  1  0  0  0  0
 87200  1  0  0  0  0
 88 92  1  0  0  0  0
 88 93  1  0  0  0  0
 88201  1  0  0  0  0
 89 90  2  0  0  0  0
 89203  1  0  0  0  0
 90204  1  0  0  0  0
 92101  1  0  0  0  0
 92205  1  0  0  0  0
 92206  1  0  0  0  0
 95104  1  0  0  0  0
 97210  1  0  0  0  0
 97211  1  0  0  0  0
 98106  2  0  0  0  0
 98107  1  0  0  0  0
 99102  1  0  0  0  0
 99212  1  0  0  0  0
100103  2  0  0  0  0
100213  1  0  0  0  0
101109  2  0  0  0  0
101110  1  0  0  0  0
102108  2  0  0  0  0
102214  1  0  0  0  0
103108  1  0  0  0  0
103215  1  0  0  0  0
104216  1  0  0  0  0
104217  1  0  0  0  0
104218  1  0  0  0  0
106111  1  0  0  0  0
106219  1  0  0  0  0
107112  2  0  0  0  0
107220  1  0  0  0  0
109114  1  0  0  0  0
109225  1  0  0  0  0
110115  2  0  0  0  0
110226  1  0  0  0  0
111113  2  0  0  0  0
111228  1  0  0  0  0
112113  1  0  0  0  0
112229  1  0  0  0  0
114116  2  0  0  0  0
114230  1  0  0  0  0
115116  1  0  0  0  0
115231  1  0  0  0  0
116234  1  0  0  0  0
M  END
> <PUBCHEM_COMPOUND_CID>
118735681

> <PUBCHEM_COMPOUND_CANONICALIZED>
0

> <PUBCHEM_CACTVS_COMPLEXITY>
3070

> <PUBCHEM_CACTVS_HBOND_ACCEPTOR>
17

> <PUBCHEM_CACTVS_HBOND_DONOR>
20

> <PUBCHEM_CACTVS_ROTATABLE_BOND>
57

> <PUBCHEM_CACTVS_SUBSKEYS>
AAADcfB//gAAAAAAAAAAAAAAAAAAAWAAAAAwYMGAAAAAAFgB9AAAHgAQCAAADSzhngY/xvLJkgCoAzV3dACCgCCxIiAJ2aG+bJiKdv7C2bOUcAhm9hPY2AedyeCOoAAAAAACAABAAAAAAAQAAAAAAAAAAA==

> <PUBCHEM_IUPAC_INCHI>
InChI=1S/C83H121N17O16/c1-5-6-7-8-9-10-11-12-13-14-15-16-20-32-72(106)88-41-24-23-30-62(94-79(113)67(92-53(4)102)46-56-35-39-59(104)40-36-56)77(111)98-68(47-57-49-90-61-29-22-21-28-60(57)61)80(114)99-69(48-71(84)105)81(115)100-70(51-101)82(116)97-66(45-54-26-18-17-19-27-54)75(109)91-50-73(107)93-65(43-52(2)3)78(112)95-63(31-25-42-89-83(86)87)76(110)96-64(74(85)108)44-55-33-37-58(103)38-34-55/h17-19,21-22,26-29,33-40,49,52,62-70,90,101,103-104H,5-16,20,23-25,30-32,41-48,50-51H2,1-4H3,(H2,84,105)(H2,85,108)(H,88,106)(H,91,109)(H,92,102)(H,93,107)(H,94,113)(H,95,112)(H,96,110)(H,97,116)(H,98,111)(H,99,114)(H,100,115)(H4,86,87,89)/t62-,63-,64-,65-,66-,67-,68-,69-,70-/m0/s1

> <PUBCHEM_IUPAC_INCHIKEY>
XIFVEOKZQXLKNB-MLOQYSRNSA-N

> <PUBCHEM_XLOGP3_AA>
7.3

> <PUBCHEM_EXACT_MASS>
1611.918

> <PUBCHEM_MOLECULAR_FORMULA>
C83H121N17O16

> <PUBCHEM_MOLECULAR_WEIGHT>
1612.984

> <PUBCHEM_OPENEYE_CAN_SMILES>
CCCCCCCCCCCCCCCC(=O)NCCCCC(C(=O)NC(CC1=CNC2=CC=CC=C21)C(=O)NC(CC(=O)N)C(=O)NC(CO)C(=O)NC(CC3=CC=CC=C3)C(=O)NCC(=O)NC(CC(C)C)C(=O)NC(CCCNC(=N)N)C(=O)NC(CC4=CC=C(C=C4)O)C(=O)N)NC(=O)C(CC5=CC=C(C=C5)O)NC(=O)C

> <PUBCHEM_OPENEYE_ISO_SMILES>
CCCCCCCCCCCCCCCC(=O)NCCCC[C@@H](C(=O)N[C@@H](CC1=CNC2=CC=CC=C21)C(=O)N[C@@H](CC(=O)N)C(=O)N[C@@H](CO)C(=O)N[C@@H](CC3=CC=CC=C3)C(=O)NCC(=O)N[C@@H](CC(C)C)C(=O)N[C@@H](CCCNC(=N)N)C(=O)N[C@@H](CC4=CC=C(C=C4)O)C(=O)N)NC(=O)[C@H](CC5=CC=C(C=C5)O)NC(=O)C

> <PUBCHEM_CACTVS_TPSA>
545

> <PUBCHEM_MONOISOTOPIC_WEIGHT>
1611.918

> <PUBCHEM_TOTAL_CHARGE>
0

> <PUBCHEM_HEAVY_ATOM_COUNT>
116

> <PUBCHEM_ATOM_DEF_STEREO_COUNT>
9

> <PUBCHEM_ATOM_UDEF_STEREO_COUNT>
0

> <PUBCHEM_BOND_DEF_STEREO_COUNT>
0

> <PUBCHEM_BOND_UDEF_STEREO_COUNT>
0

> <PUBCHEM_ISOTOPIC_ATOM_COUNT>
0

> <PUBCHEM_COMPONENT_COUNT>
1

> <PUBCHEM_CACTVS_TAUTO_COUNT>
1000

> <PUBCHEM_COORDINATE_TYPE>
1
5
255

> <PUBCHEM_BONDANNOTATIONS>
100  103  8
101  109  8
101  110  8
102  108  8
103  108  8
106  111  8
107  112  8
109  114  8
110  115  8
111  113  8
112  113  8
114  116  8
115  116  8
49  17  5
45  18  5
60  20  5
55  21  5
68  22  6
23  72  8
23  73  8
80  24  6
65  25  6
85  26  6
88  27  5
59  66  8
59  72  8
66  73  8
66  79  8
73  83  8
79  89  8
83  90  8
84  100  8
84  99  8
89  90  8
98  106  8
98  107  8
99  102  8

$$$$
