90324535
  -OEChem-03161706422D

185190  0     1  0  0  0  0  0999 V2000
   20.5933   -2.9161    0.0000 O   0  0  0  0  0  0  0  0  0  0  0  0
   22.9206   -0.1623    0.0000 O   0  0  0  0  0  0  0  0  0  0  0  0
    9.7021   -1.8456    0.0000 O   0  0  0  0  0  0  0  0  0  0  0  0
    8.0092    1.3378    0.0000 O   0  0  0  0  0  0  0  0  0  0  0  0
   16.8158    3.1938    0.0000 O   0  0  0  0  0  0  0  0  0  0  0  0
   26.4692   -0.8009    0.0000 O   0  0  0  0  0  0  0  0  0  0  0  0
   13.3054   -1.9713    0.0000 O   0  0  0  0  0  0  0  0  0  0  0  0
   13.5696    1.6246    0.0000 O   0  0  0  0  0  0  0  0  0  0  0  0
   15.5731   -0.6083    0.0000 O   0  0  0  0  0  0  0  0  0  0  0  0
    8.3691    4.4795    0.0000 O   0  0  0  0  0  0  0  0  0  0  0  0
   12.9948   -2.9218    0.0000 O   0  0  0  0  0  0  0  0  0  0  0  0
   10.6825    1.9012    0.0000 O   0  0  0  0  0  0  0  0  0  0  0  0
   27.8836    2.3613    0.0000 O   0  0  0  0  0  0  0  0  0  0  0  0
    8.1628    5.4580    0.0000 O   0  0  0  0  0  0  0  0  0  0  0  0
    2.1279    4.6972    0.0000 O   0  0  0  0  0  0  0  0  0  0  0  0
   19.4748   -0.5184    0.0000 N   0  0  0  0  0  0  0  0  0  0  0  0
   21.3005   -1.3351    0.0000 N   0  0  0  0  0  0  0  0  0  0  0  0
   23.9362   -1.5653    0.0000 N   0  0  0  0  0  0  0  0  0  0  0  0
   20.2192    0.1494    0.0000 N   0  0  0  0  0  0  0  0  0  0  0  0
   19.8140    1.0637    0.0000 N   0  0  0  0  0  0  0  0  0  0  0  0
    9.6556    0.7997    0.0000 N   0  0  0  0  0  0  0  0  0  0  0  0
   10.9912   -0.6889    0.0000 N   0  0  0  0  0  0  0  0  0  0  0  0
   17.1729    1.4990    0.0000 N   0  0  0  0  0  0  0  0  0  0  0  0
   24.2447   -4.5494    0.0000 N   0  0  0  0  0  0  0  0  0  0  0  0
    8.0557   -2.9170    0.0000 N   0  0  0  0  0  0  0  0  0  0  0  0
   15.2159    1.0865    0.0000 N   0  0  0  0  0  0  0  0  0  0  0  0
   12.9483   -0.2764    0.0000 N   0  0  0  0  0  0  0  0  0  0  0  0
    7.8310    2.8332    0.0000 N   0  0  0  0  0  0  0  0  0  0  0  0
   25.7619   -2.3819    0.0000 N   0  0  0  0  0  0  0  0  0  0  0  0
    6.4680    5.1009    0.0000 N   0  0  0  0  0  0  0  0  0  0  0  0
   25.2603   -5.9524    0.0000 N   0  0  0  0  0  0  0  0  0  0  0  0
   11.7056   -4.0785    0.0000 N   0  0  0  0  0  0  0  0  0  0  0  0
   23.5374   -6.1305    0.0000 N   0  0  0  0  0  0  0  0  0  0  0  0
   11.2206    3.5476    0.0000 N   0  0  0  0  0  0  0  0  0  0  0  0
   19.5777   -1.5131    0.0000 C   0  0  1  0  0  0  0  0  0  0  0  0
   18.7676   -2.0995    0.0000 C   0  0  0  0  0  0  0  0  0  0  0  0
   17.8548   -1.6912    0.0000 C   0  0  0  0  0  0  0  0  0  0  0  0
   22.2134   -1.7434    0.0000 C   0  0  1  0  0  0  0  0  0  0  0  0
   20.4905   -1.9214    0.0000 C   0  0  0  0  0  0  0  0  0  0  0  0
   22.3162   -2.7381    0.0000 C   0  0  0  0  0  0  0  0  0  0  0  0
   17.7520   -0.6965    0.0000 C   0  0  0  0  0  0  0  0  0  0  0  0
   17.0448   -2.2776    0.0000 C   0  0  0  0  0  0  0  0  0  0  0  0
   23.2290   -3.1464    0.0000 C   0  0  0  0  0  0  0  0  0  0  0  0
   23.0234   -1.1570    0.0000 C   0  0  0  0  0  0  0  0  0  0  0  0
   18.6097   -0.0169    0.0000 C   0  0  0  0  0  0  0  0  0  0  0  0
    9.3449   -0.1508    0.0000 C   0  0  1  0  0  0  0  0  0  0  0  0
   23.3318   -4.1411    0.0000 C   0  0  0  0  0  0  0  0  0  0  0  0
   18.8193    0.9609    0.0000 C   0  0  0  0  0  0  0  0  0  0  0  0
    8.3664   -0.3570    0.0000 C   0  0  0  0  0  0  0  0  0  0  0  0
   24.7463   -0.9789    0.0000 C   0  0  1  0  0  0  0  0  0  0  0  0
    8.0557   -1.3075    0.0000 C   0  0  0  0  0  0  0  0  0  0  0  0
   18.1515    1.7052    0.0000 C   0  0  0  0  0  0  0  0  0  0  0  0
   24.6435    0.0158    0.0000 C   0  0  0  0  0  0  0  0  0  0  0  0
    7.1095   -1.6123    0.0000 C   0  0  0  0  0  0  0  0  0  0  0  0
   10.0127   -0.8951    0.0000 C   0  0  0  0  0  0  0  0  0  0  0  0
   11.6591   -1.4332    0.0000 C   0  0  1  0  0  0  0  0  0  0  0  0
   15.5266    2.0370    0.0000 C   0  0  2  0  0  0  0  0  0  0  0  0
    8.7815    2.5225    0.0000 C   0  0  2  0  0  0  0  0  0  0  0  0
    7.1095   -2.6123    0.0000 C   0  0  0  0  0  0  0  0  0  0  0  0
    8.6393   -2.1123    0.0000 C   0  0  0  0  0  0  0  0  0  0  0  0
    8.9877    1.5440    0.0000 C   0  0  0  0  0  0  0  0  0  0  0  0
   13.9268   -0.0702    0.0000 C   0  0  2  0  0  0  0  0  0  0  0  0
   25.6591   -1.3872    0.0000 C   0  0  0  0  0  0  0  0  0  0  0  0
   16.5051    2.2433    0.0000 C   0  0  0  0  0  0  0  0  0  0  0  0
   14.8588    2.7813    0.0000 C   0  0  0  0  0  0  0  0  0  0  0  0
   25.4535    0.6022    0.0000 C   0  0  0  0  0  0  0  0  0  0  0  0
   11.3484   -2.3837    0.0000 C   0  0  0  0  0  0  0  0  0  0  0  0
   12.6376   -1.2270    0.0000 C   0  0  0  0  0  0  0  0  0  0  0  0
    9.5258    3.1904    0.0000 C   0  0  0  0  0  0  0  0  0  0  0  0
    6.2435   -1.1123    0.0000 C   0  0  0  0  0  0  0  0  0  0  0  0
   14.2374    0.8803    0.0000 C   0  0  0  0  0  0  0  0  0  0  0  0
    6.6742    4.1224    0.0000 C   0  0  2  0  0  0  0  0  0  0  0  0
    6.2435   -3.1123    0.0000 C   0  0  0  0  0  0  0  0  0  0  0  0
    7.6248    3.8117    0.0000 C   0  0  0  0  0  0  0  0  0  0  0  0
   15.1694    3.7318    0.0000 C   0  0  0  0  0  0  0  0  0  0  0  0
   14.5946   -0.8145    0.0000 C   0  0  0  0  0  0  0  0  0  0  0  0
    5.3775   -1.6123    0.0000 C   0  0  0  0  0  0  0  0  0  0  0  0
    5.9299    3.4545    0.0000 C   0  0  0  0  0  0  0  0  0  0  0  0
   24.3475   -5.5441    0.0000 C   0  0  0  0  0  0  0  0  0  0  0  0
    5.3775   -2.6123    0.0000 C   0  0  0  0  0  0  0  0  0  0  0  0
   25.3507    1.5969    0.0000 C   0  0  0  0  0  0  0  0  0  0  0  0
   26.3663    0.1938    0.0000 C   0  0  0  0  0  0  0  0  0  0  0  0
   12.0163   -3.1280    0.0000 C   0  0  0  0  0  0  0  0  0  0  0  0
   10.4763    2.8797    0.0000 C   0  0  0  0  0  0  0  0  0  0  0  0
    4.9794    3.7652    0.0000 C   0  0  0  0  0  0  0  0  0  0  0  0
   14.5016    4.4761    0.0000 C   0  0  0  0  0  0  0  0  0  0  0  0
   16.1479    3.9381    0.0000 C   0  0  0  0  0  0  0  0  0  0  0  0
   26.1607    2.1832    0.0000 C   0  0  0  0  0  0  0  0  0  0  0  0
   27.1764    0.7802    0.0000 C   0  0  0  0  0  0  0  0  0  0  0  0
   27.0736    1.7749    0.0000 C   0  0  0  0  0  0  0  0  0  0  0  0
   14.8122    5.4267    0.0000 C   0  0  0  0  0  0  0  0  0  0  0  0
   16.4586    4.8886    0.0000 C   0  0  0  0  0  0  0  0  0  0  0  0
    4.2351    3.0973    0.0000 C   0  0  0  0  0  0  0  0  0  0  0  0
    4.7732    4.7437    0.0000 C   0  0  0  0  0  0  0  0  0  0  0  0
    7.2123    5.7687    0.0000 C   0  0  0  0  0  0  0  0  0  0  0  0
   15.7907    5.6329    0.0000 C   0  0  0  0  0  0  0  0  0  0  0  0
    3.2846    3.4080    0.0000 C   0  0  0  0  0  0  0  0  0  0  0  0
    3.8227    5.0543    0.0000 C   0  0  0  0  0  0  0  0  0  0  0  0
    7.0061    6.7472    0.0000 C   0  0  0  0  0  0  0  0  0  0  0  0
    3.0784    4.3865    0.0000 C   0  0  0  0  0  0  0  0  0  0  0  0
   19.6414   -2.1298    0.0000 H   0  0  0  0  0  0  0  0  0  0  0  0
   18.4200   -2.6129    0.0000 H   0  0  0  0  0  0  0  0  0  0  0  0
   19.2129   -2.5310    0.0000 H   0  0  0  0  0  0  0  0  0  0  0  0
   18.3570   -1.3276    0.0000 H   0  0  0  0  0  0  0  0  0  0  0  0
   22.1496   -1.1267    0.0000 H   0  0  0  0  0  0  0  0  0  0  0  0
   21.6978   -2.6938    0.0000 H   0  0  0  0  0  0  0  0  0  0  0  0
   22.1651   -3.3394    0.0000 H   0  0  0  0  0  0  0  0  0  0  0  0
   21.2368   -0.7183    0.0000 H   0  0  0  0  0  0  0  0  0  0  0  0
   16.6812   -1.7754    0.0000 H   0  0  0  0  0  0  0  0  0  0  0  0
   16.5425   -2.6411    0.0000 H   0  0  0  0  0  0  0  0  0  0  0  0
   17.4083   -2.7798    0.0000 H   0  0  0  0  0  0  0  0  0  0  0  0
   18.3687   -0.6327    0.0000 H   0  0  0  0  0  0  0  0  0  0  0  0
   17.6882   -0.0798    0.0000 H   0  0  0  0  0  0  0  0  0  0  0  0
   17.1353   -0.7602    0.0000 H   0  0  0  0  0  0  0  0  0  0  0  0
   23.8474   -3.1907    0.0000 H   0  0  0  0  0  0  0  0  0  0  0  0
   23.3800   -2.5451    0.0000 H   0  0  0  0  0  0  0  0  0  0  0  0
   18.0429   -0.2681    0.0000 H   0  0  0  0  0  0  0  0  0  0  0  0
    8.9308    0.3107    0.0000 H   0  0  0  0  0  0  0  0  0  0  0  0
   22.7134   -4.0968    0.0000 H   0  0  0  0  0  0  0  0  0  0  0  0
   23.1808   -4.7424    0.0000 H   0  0  0  0  0  0  0  0  0  0  0  0
    8.3458    0.2626    0.0000 H   0  0  0  0  0  0  0  0  0  0  0  0
    7.7526   -0.2697    0.0000 H   0  0  0  0  0  0  0  0  0  0  0  0
   24.8100   -1.5956    0.0000 H   0  0  0  0  0  0  0  0  0  0  0  0
   24.0000   -2.1820    0.0000 H   0  0  0  0  0  0  0  0  0  0  0  0
   18.6778    2.0328    0.0000 H   0  0  0  0  0  0  0  0  0  0  0  0
   17.9202    2.2804    0.0000 H   0  0  0  0  0  0  0  0  0  0  0  0
   24.3726    0.5735    0.0000 H   0  0  0  0  0  0  0  0  0  0  0  0
   24.0472   -0.1541    0.0000 H   0  0  0  0  0  0  0  0  0  0  0  0
   10.2622    0.9276    0.0000 H   0  0  0  0  0  0  0  0  0  0  0  0
   11.8517   -0.8439    0.0000 H   0  0  0  0  0  0  0  0  0  0  0  0
   14.9199    1.9092    0.0000 H   0  0  0  0  0  0  0  0  0  0  0  0
    8.6536    3.1292    0.0000 H   0  0  0  0  0  0  0  0  0  0  0  0
   11.1839   -0.0996    0.0000 H   0  0  0  0  0  0  0  0  0  0  0  0
    9.2593   -2.1123    0.0000 H   0  0  0  0  0  0  0  0  0  0  0  0
   16.9803    0.9096    0.0000 H   0  0  0  0  0  0  0  0  0  0  0  0
   24.7469   -4.1858    0.0000 H   0  0  0  0  0  0  0  0  0  0  0  0
   13.7342   -0.6596    0.0000 H   0  0  0  0  0  0  0  0  0  0  0  0
    8.2483   -3.5063    0.0000 H   0  0  0  0  0  0  0  0  0  0  0  0
   14.3118    3.0734    0.0000 H   0  0  0  0  0  0  0  0  0  0  0  0
   14.4762    2.2934    0.0000 H   0  0  0  0  0  0  0  0  0  0  0  0
   10.8015   -2.0917    0.0000 H   0  0  0  0  0  0  0  0  0  0  0  0
   10.9659   -2.8716    0.0000 H   0  0  0  0  0  0  0  0  0  0  0  0
    9.8178    3.7373    0.0000 H   0  0  0  0  0  0  0  0  0  0  0  0
    9.0379    3.5729    0.0000 H   0  0  0  0  0  0  0  0  0  0  0  0
   15.6300    0.6250    0.0000 H   0  0  0  0  0  0  0  0  0  0  0  0
    6.2435   -0.4923    0.0000 H   0  0  0  0  0  0  0  0  0  0  0  0
    7.3695    2.4191    0.0000 H   0  0  0  0  0  0  0  0  0  0  0  0
   12.5342    0.1850    0.0000 H   0  0  0  0  0  0  0  0  0  0  0  0
    6.0849    4.3150    0.0000 H   0  0  0  0  0  0  0  0  0  0  0  0
    6.2435   -3.7323    0.0000 H   0  0  0  0  0  0  0  0  0  0  0  0
   14.0683   -1.1422    0.0000 H   0  0  0  0  0  0  0  0  0  0  0  0
   14.8259   -1.3898    0.0000 H   0  0  0  0  0  0  0  0  0  0  0  0
    4.8405   -1.3023    0.0000 H   0  0  0  0  0  0  0  0  0  0  0  0
    5.6379    2.9076    0.0000 H   0  0  0  0  0  0  0  0  0  0  0  0
    6.4178    3.0720    0.0000 H   0  0  0  0  0  0  0  0  0  0  0  0
    4.8405   -2.9223    0.0000 H   0  0  0  0  0  0  0  0  0  0  0  0
   24.7847    1.8500    0.0000 H   0  0  0  0  0  0  0  0  0  0  0  0
   26.4301   -0.4229    0.0000 H   0  0  0  0  0  0  0  0  0  0  0  0
   26.3279   -2.6351    0.0000 H   0  0  0  0  0  0  0  0  0  0  0  0
   25.2597   -2.7455    0.0000 H   0  0  0  0  0  0  0  0  0  0  0  0
    5.8787    5.2935    0.0000 H   0  0  0  0  0  0  0  0  0  0  0  0
   13.8949    4.3483    0.0000 H   0  0  0  0  0  0  0  0  0  0  0  0
   16.5620    3.4766    0.0000 H   0  0  0  0  0  0  0  0  0  0  0  0
   26.0970    2.8000    0.0000 H   0  0  0  0  0  0  0  0  0  0  0  0
   27.7423    0.5271    0.0000 H   0  0  0  0  0  0  0  0  0  0  0  0
   25.3241   -6.5691    0.0000 H   0  0  0  0  0  0  0  0  0  0  0  0
   25.7625   -5.5889    0.0000 H   0  0  0  0  0  0  0  0  0  0  0  0
   15.9872   -1.0698    0.0000 H   0  0  0  0  0  0  0  0  0  0  0  0
   14.3982    5.8881    0.0000 H   0  0  0  0  0  0  0  0  0  0  0  0
   17.0653    5.0164    0.0000 H   0  0  0  0  0  0  0  0  0  0  0  0
    4.3630    2.4907    0.0000 H   0  0  0  0  0  0  0  0  0  0  0  0
    5.2347    5.1577    0.0000 H   0  0  0  0  0  0  0  0  0  0  0  0
   12.1197   -4.5400    0.0000 H   0  0  0  0  0  0  0  0  0  0  0  0
   11.0989   -4.2064    0.0000 H   0  0  0  0  0  0  0  0  0  0  0  0
   23.6012   -6.7472    0.0000 H   0  0  0  0  0  0  0  0  0  0  0  0
   11.8099    3.3549    0.0000 H   0  0  0  0  0  0  0  0  0  0  0  0
   11.0928    4.1542    0.0000 H   0  0  0  0  0  0  0  0  0  0  0  0
   15.9833    6.2222    0.0000 H   0  0  0  0  0  0  0  0  0  0  0  0
    2.8231    2.9939    0.0000 H   0  0  0  0  0  0  0  0  0  0  0  0
    3.6948    5.6610    0.0000 H   0  0  0  0  0  0  0  0  0  0  0  0
    7.6128    6.8751    0.0000 H   0  0  0  0  0  0  0  0  0  0  0  0
    6.8782    7.3539    0.0000 H   0  0  0  0  0  0  0  0  0  0  0  0
    6.3994    6.6194    0.0000 H   0  0  0  0  0  0  0  0  0  0  0  0
   27.8199    2.9780    0.0000 H   0  0  0  0  0  0  0  0  0  0  0  0
    2.0000    5.3038    0.0000 H   0  0  0  0  0  0  0  0  0  0  0  0
  1 39  2  0  0  0  0
  2 44  2  0  0  0  0
  3 55  2  0  0  0  0
  4 61  2  0  0  0  0
  5 64  2  0  0  0  0
  6 63  2  0  0  0  0
  7 68  2  0  0  0  0
  8 71  2  0  0  0  0
  9 76  1  0  0  0  0
  9168  1  0  0  0  0
 10 74  2  0  0  0  0
 11 83  2  0  0  0  0
 12 84  2  0  0  0  0
 13 90  1  0  0  0  0
 13184  1  0  0  0  0
 14 95  2  0  0  0  0
 15100  1  0  0  0  0
 15185  1  0  0  0  0
 16 19  1  0  0  0  0
 16 35  1  0  0  0  0
 16 45  1  0  0  0  0
 38 17  1  6  0  0  0
 17 39  1  0  0  0  0
 17108  1  0  0  0  0
 18 44  1  0  0  0  0
 50 18  1  1  0  0  0
 18124  1  0  0  0  0
 19 20  2  0  0  0  0
 20 48  1  0  0  0  0
 46 21  1  6  0  0  0
 21 61  1  0  0  0  0
 21129  1  0  0  0  0
 22 55  1  0  0  0  0
 56 22  1  6  0  0  0
 22133  1  0  0  0  0
 23 52  1  0  0  0  0
 23 64  1  0  0  0  0
 23135  1  0  0  0  0
 24 47  1  0  0  0  0
 24 79  1  0  0  0  0
 24136  1  0  0  0  0
 25 59  1  0  0  0  0
 25 60  1  0  0  0  0
 25138  1  0  0  0  0
 57 26  1  1  0  0  0
 26 71  1  0  0  0  0
 26145  1  0  0  0  0
 62 27  1  6  0  0  0
 27 68  1  0  0  0  0
 27148  1  0  0  0  0
 58 28  1  1  0  0  0
 28 74  1  0  0  0  0
 28147  1  0  0  0  0
 29 63  1  0  0  0  0
 29159  1  0  0  0  0
 29160  1  0  0  0  0
 72 30  1  6  0  0  0
 30 95  1  0  0  0  0
 30161  1  0  0  0  0
 31 79  1  0  0  0  0
 31166  1  0  0  0  0
 31167  1  0  0  0  0
 32 83  1  0  0  0  0
 32173  1  0  0  0  0
 32174  1  0  0  0  0
 33 79  2  0  0  0  0
 33175  1  0  0  0  0
 34 84  1  0  0  0  0
 34176  1  0  0  0  0
 34177  1  0  0  0  0
 35 36  1  6  0  0  0
 35 39  1  0  0  0  0
 35101  1  0  0  0  0
 36 37  1  0  0  0  0
 36102  1  0  0  0  0
 36103  1  0  0  0  0
 37 41  1  0  0  0  0
 37 42  1  0  0  0  0
 37104  1  0  0  0  0
 38 40  1  0  0  0  0
 38 44  1  0  0  0  0
 38105  1  0  0  0  0
 40 43  1  0  0  0  0
 40106  1  0  0  0  0
 40107  1  0  0  0  0
 41112  1  0  0  0  0
 41113  1  0  0  0  0
 41114  1  0  0  0  0
 42109  1  0  0  0  0
 42110  1  0  0  0  0
 42111  1  0  0  0  0
 43 47  1  0  0  0  0
 43115  1  0  0  0  0
 43116  1  0  0  0  0
 45 48  2  0  0  0  0
 45117  1  0  0  0  0
 46 49  1  0  0  0  0
 46 55  1  0  0  0  0
 46118  1  0  0  0  0
 47119  1  0  0  0  0
 47120  1  0  0  0  0
 48 52  1  0  0  0  0
 49 51  1  0  0  0  0
 49121  1  0  0  0  0
 49122  1  0  0  0  0
 50 53  1  0  0  0  0
 50 63  1  0  0  0  0
 50123  1  0  0  0  0
 51 54  1  0  0  0  0
 51 60  2  0  0  0  0
 52125  1  0  0  0  0
 52126  1  0  0  0  0
 53 66  1  0  0  0  0
 53127  1  0  0  0  0
 53128  1  0  0  0  0
 54 59  1  0  0  0  0
 54 70  2  0  0  0  0
 56 67  1  0  0  0  0
 56 68  1  0  0  0  0
 56130  1  0  0  0  0
 57 64  1  0  0  0  0
 57 65  1  0  0  0  0
 57131  1  0  0  0  0
 58 61  1  0  0  0  0
 58 69  1  0  0  0  0
 58132  1  0  0  0  0
 59 73  2  0  0  0  0
 60134  1  0  0  0  0
 62 71  1  0  0  0  0
 62 76  1  0  0  0  0
 62137  1  0  0  0  0
 65 75  1  0  0  0  0
 65139  1  0  0  0  0
 65140  1  0  0  0  0
 66 81  2  0  0  0  0
 66 82  1  0  0  0  0
 67 83  1  0  0  0  0
 67141  1  0  0  0  0
 67142  1  0  0  0  0
 69 84  1  0  0  0  0
 69143  1  0  0  0  0
 69144  1  0  0  0  0
 70 77  1  0  0  0  0
 70146  1  0  0  0  0
 72 74  1  0  0  0  0
 72 78  1  0  0  0  0
 72149  1  0  0  0  0
 73 80  1  0  0  0  0
 73150  1  0  0  0  0
 75 86  2  0  0  0  0
 75 87  1  0  0  0  0
 76151  1  0  0  0  0
 76152  1  0  0  0  0
 77 80  2  0  0  0  0
 77153  1  0  0  0  0
 78 85  1  0  0  0  0
 78154  1  0  0  0  0
 78155  1  0  0  0  0
 80156  1  0  0  0  0
 81 88  1  0  0  0  0
 81157  1  0  0  0  0
 82 89  2  0  0  0  0
 82158  1  0  0  0  0
 85 93  2  0  0  0  0
 85 94  1  0  0  0  0
 86 91  1  0  0  0  0
 86162  1  0  0  0  0
 87 92  2  0  0  0  0
 87163  1  0  0  0  0
 88 90  2  0  0  0  0
 88164  1  0  0  0  0
 89 90  1  0  0  0  0
 89165  1  0  0  0  0
 91 96  2  0  0  0  0
 91169  1  0  0  0  0
 92 96  1  0  0  0  0
 92170  1  0  0  0  0
 93 97  1  0  0  0  0
 93171  1  0  0  0  0
 94 98  2  0  0  0  0
 94172  1  0  0  0  0
 95 99  1  0  0  0  0
 96178  1  0  0  0  0
 97100  2  0  0  0  0
 97179  1  0  0  0  0
 98100  1  0  0  0  0
 98180  1  0  0  0  0
 99181  1  0  0  0  0
 99182  1  0  0  0  0
 99183  1  0  0  0  0
M  END
> <PUBCHEM_COMPOUND_CID>
90324535

> <PUBCHEM_COMPOUND_CANONICALIZED>
0

> <PUBCHEM_CACTVS_COMPLEXITY>
2780

> <PUBCHEM_CACTVS_HBOND_ACCEPTOR>
18

> <PUBCHEM_CACTVS_HBOND_DONOR>
19

> <PUBCHEM_CACTVS_ROTATABLE_BOND>
40

> <PUBCHEM_CACTVS_SUBSKEYS>
AAADcfB//AAAAAAAAAAAAAAAAAAAAWLAAAAwYMGAAAAAAFgB/AAAHgAYCAAADSzhngY/xvLJkgCqAzV3dACChCSxsiAZ2aG+fJiKdv7C2bOUcAhm9hPY2AedyeCOoAAAAAACAABAAAAAAAQAAAAAAAAAAA==

> <PUBCHEM_IUPAC_INCHI>
InChI=1S/C66H85N19O15/c1-35(2)24-54(65(100)76-46(14-9-23-72-66(70)71)59(94)77-47(57(69)92)25-38-15-19-42(88)20-16-38)85-33-41(83-84-85)32-74-58(93)48(26-37-10-5-4-6-11-37)78-64(99)53(34-86)82-63(98)52(30-56(68)91)81-61(96)50(28-40-31-73-45-13-8-7-12-44(40)45)79-62(97)51(29-55(67)90)80-60(95)49(75-36(3)87)27-39-17-21-43(89)22-18-39/h4-8,10-13,15-22,31,33,35,46-54,73,86,88-89H,9,14,23-30,32,34H2,1-3H3,(H2,67,90)(H2,68,91)(H2,69,92)(H,74,93)(H,75,87)(H,76,100)(H,77,94)(H,78,99)(H,79,97)(H,80,95)(H,81,96)(H,82,98)(H4,70,71,72)/t46-,47-,48-,49-,50-,51-,52-,53-,54-/m0/s1

> <PUBCHEM_IUPAC_INCHIKEY>
IPPHIXDEFHDNNJ-AIZAZPTRSA-N

> <PUBCHEM_XLOGP3_AA>
-1.6

> <PUBCHEM_EXACT_MASS>
1383.647

> <PUBCHEM_MOLECULAR_FORMULA>
C66H85N19O15

> <PUBCHEM_MOLECULAR_WEIGHT>
1384.524

> <PUBCHEM_OPENEYE_CAN_SMILES>
CC(C)CC(C(=O)NC(CCCNC(=N)N)C(=O)NC(CC1=CC=C(C=C1)O)C(=O)N)N2C=C(N=N2)CNC(=O)C(CC3=CC=CC=C3)NC(=O)C(CO)NC(=O)C(CC(=O)N)NC(=O)C(CC4=CNC5=CC=CC=C54)NC(=O)C(CC(=O)N)NC(=O)C(CC6=CC=C(C=C6)O)NC(=O)C

> <PUBCHEM_OPENEYE_ISO_SMILES>
CC(C)C[C@@H](C(=O)N[C@@H](CCCNC(=N)N)C(=O)N[C@@H](CC1=CC=C(C=C1)O)C(=O)N)N2C=C(N=N2)CNC(=O)[C@H](CC3=CC=CC=C3)NC(=O)[C@H](CO)NC(=O)[C@H](CC(=O)N)NC(=O)[C@H](CC4=CNC5=CC=CC=C54)NC(=O)[C@H](CC(=O)N)NC(=O)[C@H](CC6=CC=C(C=C6)O)NC(=O)C

> <PUBCHEM_CACTVS_TPSA>
560

> <PUBCHEM_MONOISOTOPIC_WEIGHT>
1383.647

> <PUBCHEM_TOTAL_CHARGE>
0

> <PUBCHEM_HEAVY_ATOM_COUNT>
100

> <PUBCHEM_ATOM_DEF_STEREO_COUNT>
9

> <PUBCHEM_ATOM_UDEF_STEREO_COUNT>
0

> <PUBCHEM_BOND_DEF_STEREO_COUNT>
0

> <PUBCHEM_BOND_UDEF_STEREO_COUNT>
0

> <PUBCHEM_ISOTOPIC_ATOM_COUNT>
0

> <PUBCHEM_COMPONENT_COUNT>
1

> <PUBCHEM_CACTVS_TAUTO_COUNT>
1000

> <PUBCHEM_COORDINATE_TYPE>
1
5
255

> <PUBCHEM_BONDANNOTATIONS>
16  19  8
16  45  8
38  17  6
50  18  5
19  20  8
20  48  8
46  21  6
56  22  6
25  59  8
25  60  8
57  26  5
62  27  6
58  28  5
72  30  6
35  36  6
45  48  8
51  54  8
51  60  8
54  59  8
54  70  8
59  73  8
66  81  8
66  82  8
70  77  8
73  80  8
75  86  8
75  87  8
77  80  8
81  88  8
82  89  8
85  93  8
85  94  8
86  91  8
87  92  8
88  90  8
89  90  8
91  96  8
92  96  8
93  97  8
94  98  8
97  100  8
98  100  8

$$$$
