90324512
  -OEChem-03161706422D

187193  0     1  0  0  0  0  0999 V2000
   20.4755   -2.2302    0.0000 O   0  0  0  0  0  0  0  0  0  0  0  0
   23.3245   -0.0204    0.0000 O   0  0  0  0  0  0  0  0  0  0  0  0
    6.3246   -1.5615    0.0000 O   0  0  0  0  0  0  0  0  0  0  0  0
    4.6318    1.6219    0.0000 O   0  0  0  0  0  0  0  0  0  0  0  0
   26.6627   -1.3828    0.0000 O   0  0  0  0  0  0  0  0  0  0  0  0
    9.5708    0.0076    0.0000 O   0  0  0  0  0  0  0  0  0  0  0  0
   11.2637   -3.1758    0.0000 O   0  0  0  0  0  0  0  0  0  0  0  0
   12.1957   -0.3242    0.0000 O   0  0  0  0  0  0  0  0  0  0  0  0
    6.5422    4.6797    0.0000 O   0  0  0  0  0  0  0  0  0  0  0  0
    9.1277   -3.3888    0.0000 O   0  0  0  0  0  0  0  0  0  0  0  0
    3.9639    2.3662    0.0000 O   0  0  0  0  0  0  0  0  0  0  0  0
   28.7037    1.4162    0.0000 O   0  0  0  0  0  0  0  0  0  0  0  0
    6.8529    5.6302    0.0000 O   0  0  0  0  0  0  0  0  0  0  0  0
   12.7705    4.2222    0.0000 O   0  0  0  0  0  0  0  0  0  0  0  0
   18.8595   -1.0518    0.0000 N   0  0  0  0  0  0  0  0  0  0  0  0
   21.4960   -0.8307    0.0000 N   0  0  0  0  0  0  0  0  0  0  0  0
   24.0262   -1.6039    0.0000 N   0  0  0  0  0  0  0  0  0  0  0  0
   18.6499   -2.0296    0.0000 N   0  0  0  0  0  0  0  0  0  0  0  0
   17.6552   -2.1324    0.0000 N   0  0  0  0  0  0  0  0  0  0  0  0
   15.6018   -1.7505    0.0000 N   0  0  0  0  0  0  0  0  0  0  0  0
    6.2781    1.0838    0.0000 N   0  0  0  0  0  0  0  0  0  0  0  0
    7.6138   -0.4048    0.0000 N   0  0  0  0  0  0  0  0  0  0  0  0
   23.7075   -4.5869    0.0000 N   0  0  0  0  0  0  0  0  0  0  0  0
   12.5528   -2.0190    0.0000 N   0  0  0  0  0  0  0  0  0  0  0  0
    4.6783   -2.6329    0.0000 N   0  0  0  0  0  0  0  0  0  0  0  0
    9.9280   -1.6872    0.0000 N   0  0  0  0  0  0  0  0  0  0  0  0
    6.8994    2.9848    0.0000 N   0  0  0  0  0  0  0  0  0  0  0  0
   15.8081   -2.7290    0.0000 N   0  0  0  0  0  0  0  0  0  0  0  0
   14.9412   -3.2275    0.0000 N   0  0  0  0  0  0  0  0  0  0  0  0
   25.6422   -2.7823    0.0000 N   0  0  0  0  0  0  0  0  0  0  0  0
    8.4993    5.0921    0.0000 N   0  0  0  0  0  0  0  0  0  0  0  0
   24.4092   -6.1704    0.0000 N   0  0  0  0  0  0  0  0  0  0  0  0
    7.4329   -3.7460    0.0000 N   0  0  0  0  0  0  0  0  0  0  0  0
   22.6870   -5.9864    0.0000 N   0  0  0  0  0  0  0  0  0  0  0  0
    3.6067    4.0610    0.0000 N   0  0  0  0  0  0  0  0  0  0  0  0
   19.7738   -0.6467    0.0000 C   0  0  1  0  0  0  0  0  0  0  0  0
   19.8800    0.3477    0.0000 C   0  0  0  0  0  0  0  0  0  0  0  0
   19.0720    0.9369    0.0000 C   0  0  0  0  0  0  0  0  0  0  0  0
   22.3040   -1.4199    0.0000 C   0  0  1  0  0  0  0  0  0  0  0  0
   20.5818   -1.2358    0.0000 C   0  0  0  0  0  0  0  0  0  0  0  0
   22.1978   -2.4142    0.0000 C   0  0  0  0  0  0  0  0  0  0  0  0
   19.1783    1.9312    0.0000 C   0  0  0  0  0  0  0  0  0  0  0  0
   18.1578    0.5317    0.0000 C   0  0  0  0  0  0  0  0  0  0  0  0
   23.0057   -3.0034    0.0000 C   0  0  0  0  0  0  0  0  0  0  0  0
   23.2182   -1.0147    0.0000 C   0  0  0  0  0  0  0  0  0  0  0  0
   17.9943   -0.5503    0.0000 C   0  0  0  0  0  0  0  0  0  0  0  0
   17.2500   -1.2182    0.0000 C   0  0  0  0  0  0  0  0  0  0  0  0
    5.9674    0.1333    0.0000 C   0  0  1  0  0  0  0  0  0  0  0  0
   22.8995   -3.9977    0.0000 C   0  0  0  0  0  0  0  0  0  0  0  0
   24.9405   -1.1987    0.0000 C   0  0  1  0  0  0  0  0  0  0  0  0
    4.9889   -0.0729    0.0000 C   0  0  0  0  0  0  0  0  0  0  0  0
   16.2723   -1.0086    0.0000 C   0  0  0  0  0  0  0  0  0  0  0  0
    4.6783   -1.0234    0.0000 C   0  0  0  0  0  0  0  0  0  0  0  0
   13.2207   -2.7634    0.0000 C   0  0  2  0  0  0  0  0  0  0  0  0
   25.0467   -0.2044    0.0000 C   0  0  0  0  0  0  0  0  0  0  0  0
    8.2816   -1.1491    0.0000 C   0  0  2  0  0  0  0  0  0  0  0  0
    6.6353   -0.6110    0.0000 C   0  0  0  0  0  0  0  0  0  0  0  0
    3.7320   -1.3282    0.0000 C   0  0  0  0  0  0  0  0  0  0  0  0
   14.1992   -2.5571    0.0000 C   0  0  0  0  0  0  0  0  0  0  0  0
   12.9100   -3.7139    0.0000 C   0  0  0  0  0  0  0  0  0  0  0  0
    5.9209    2.7786    0.0000 C   0  0  2  0  0  0  0  0  0  0  0  0
   14.6075   -1.6443    0.0000 C   0  0  0  0  0  0  0  0  0  0  0  0
    3.7320   -2.3282    0.0000 C   0  0  0  0  0  0  0  0  0  0  0  0
   10.9065   -1.4810    0.0000 C   0  0  2  0  0  0  0  0  0  0  0  0
    5.2619   -1.8282    0.0000 C   0  0  0  0  0  0  0  0  0  0  0  0
    5.6103    1.8281    0.0000 C   0  0  0  0  0  0  0  0  0  0  0  0
   25.7485   -1.7879    0.0000 C   0  0  0  0  0  0  0  0  0  0  0  0
    9.2601   -0.9429    0.0000 C   0  0  0  0  0  0  0  0  0  0  0  0
    7.9710   -2.0996    0.0000 C   0  0  0  0  0  0  0  0  0  0  0  0
   25.9610    0.2008    0.0000 C   0  0  0  0  0  0  0  0  0  0  0  0
   11.5743   -2.2253    0.0000 C   0  0  0  0  0  0  0  0  0  0  0  0
    5.2531    3.5229    0.0000 C   0  0  0  0  0  0  0  0  0  0  0  0
    2.8660   -0.8282    0.0000 C   0  0  0  0  0  0  0  0  0  0  0  0
   13.5779   -4.4582    0.0000 C   0  0  0  0  0  0  0  0  0  0  0  0
   11.2171   -0.5304    0.0000 C   0  0  0  0  0  0  0  0  0  0  0  0
    8.1886    4.1416    0.0000 C   0  0  2  0  0  0  0  0  0  0  0  0
    2.8660   -2.8282    0.0000 C   0  0  0  0  0  0  0  0  0  0  0  0
    7.2101    3.9354    0.0000 C   0  0  0  0  0  0  0  0  0  0  0  0
    2.0000   -1.3282    0.0000 C   0  0  0  0  0  0  0  0  0  0  0  0
   23.6012   -5.5812    0.0000 C   0  0  0  0  0  0  0  0  0  0  0  0
    8.8564    3.3973    0.0000 C   0  0  0  0  0  0  0  0  0  0  0  0
    2.0000   -2.3282    0.0000 C   0  0  0  0  0  0  0  0  0  0  0  0
   26.7690   -0.3884    0.0000 C   0  0  0  0  0  0  0  0  0  0  0  0
   26.0672    1.1951    0.0000 C   0  0  0  0  0  0  0  0  0  0  0  0
    8.1772   -3.0781    0.0000 C   0  0  0  0  0  0  0  0  0  0  0  0
   13.2672   -5.4087    0.0000 C   0  0  0  0  0  0  0  0  0  0  0  0
   14.5564   -4.2520    0.0000 C   0  0  0  0  0  0  0  0  0  0  0  0
    4.2746    3.3167    0.0000 C   0  0  0  0  0  0  0  0  0  0  0  0
    9.8349    3.6035    0.0000 C   0  0  0  0  0  0  0  0  0  0  0  0
   27.6832    0.0167    0.0000 C   0  0  0  0  0  0  0  0  0  0  0  0
   26.9815    1.6002    0.0000 C   0  0  0  0  0  0  0  0  0  0  0  0
   27.7895    1.0111    0.0000 C   0  0  0  0  0  0  0  0  0  0  0  0
   13.9350   -6.1530    0.0000 C   0  0  0  0  0  0  0  0  0  0  0  0
   15.2242   -4.9962    0.0000 C   0  0  0  0  0  0  0  0  0  0  0  0
   14.9135   -5.9468    0.0000 C   0  0  0  0  0  0  0  0  0  0  0  0
   10.5028    2.8592    0.0000 C   0  0  0  0  0  0  0  0  0  0  0  0
   10.1456    4.5540    0.0000 C   0  0  0  0  0  0  0  0  0  0  0  0
    7.8314    5.8364    0.0000 C   0  0  0  0  0  0  0  0  0  0  0  0
   11.4813    3.0654    0.0000 C   0  0  0  0  0  0  0  0  0  0  0  0
   11.1241    4.7602    0.0000 C   0  0  0  0  0  0  0  0  0  0  0  0
    8.1421    6.7869    0.0000 C   0  0  0  0  0  0  0  0  0  0  0  0
   11.7920    4.0159    0.0000 C   0  0  0  0  0  0  0  0  0  0  0  0
   20.3406   -0.3955    0.0000 H   0  0  0  0  0  0  0  0  0  0  0  0
   20.4757    0.1758    0.0000 H   0  0  0  0  0  0  0  0  0  0  0  0
   20.1528    0.9045    0.0000 H   0  0  0  0  0  0  0  0  0  0  0  0
   19.6388    1.1881    0.0000 H   0  0  0  0  0  0  0  0  0  0  0  0
   21.7372   -1.6711    0.0000 H   0  0  0  0  0  0  0  0  0  0  0  0
   21.6021   -2.2423    0.0000 H   0  0  0  0  0  0  0  0  0  0  0  0
   21.9250   -2.9710    0.0000 H   0  0  0  0  0  0  0  0  0  0  0  0
   21.5619   -0.2142    0.0000 H   0  0  0  0  0  0  0  0  0  0  0  0
   17.9066    1.0986    0.0000 H   0  0  0  0  0  0  0  0  0  0  0  0
   17.5909    0.2805    0.0000 H   0  0  0  0  0  0  0  0  0  0  0  0
   18.4090   -0.0351    0.0000 H   0  0  0  0  0  0  0  0  0  0  0  0
   19.7947    1.8653    0.0000 H   0  0  0  0  0  0  0  0  0  0  0  0
   19.2441    2.5477    0.0000 H   0  0  0  0  0  0  0  0  0  0  0  0
   18.5618    1.9971    0.0000 H   0  0  0  0  0  0  0  0  0  0  0  0
   23.6014   -3.1753    0.0000 H   0  0  0  0  0  0  0  0  0  0  0  0
   23.2785   -2.4466    0.0000 H   0  0  0  0  0  0  0  0  0  0  0  0
   17.9306    0.0664    0.0000 H   0  0  0  0  0  0  0  0  0  0  0  0
    5.5534    0.5948    0.0000 H   0  0  0  0  0  0  0  0  0  0  0  0
   22.3038   -3.8258    0.0000 H   0  0  0  0  0  0  0  0  0  0  0  0
   22.6267   -4.5545    0.0000 H   0  0  0  0  0  0  0  0  0  0  0  0
    4.9684    0.5467    0.0000 H   0  0  0  0  0  0  0  0  0  0  0  0
    4.3751    0.0144    0.0000 H   0  0  0  0  0  0  0  0  0  0  0  0
   23.9604   -2.2204    0.0000 H   0  0  0  0  0  0  0  0  0  0  0  0
   24.8746   -1.8152    0.0000 H   0  0  0  0  0  0  0  0  0  0  0  0
   16.5055   -0.4341    0.0000 H   0  0  0  0  0  0  0  0  0  0  0  0
   15.7470   -0.6791    0.0000 H   0  0  0  0  0  0  0  0  0  0  0  0
   12.6140   -2.8912    0.0000 H   0  0  0  0  0  0  0  0  0  0  0  0
   24.8978    0.3974    0.0000 H   0  0  0  0  0  0  0  0  0  0  0  0
   24.4282   -0.2466    0.0000 H   0  0  0  0  0  0  0  0  0  0  0  0
    8.4742   -0.5598    0.0000 H   0  0  0  0  0  0  0  0  0  0  0  0
    6.8848    1.2117    0.0000 H   0  0  0  0  0  0  0  0  0  0  0  0
   12.3631   -3.4218    0.0000 H   0  0  0  0  0  0  0  0  0  0  0  0
   12.5275   -4.2018    0.0000 H   0  0  0  0  0  0  0  0  0  0  0  0
    6.1135    3.3680    0.0000 H   0  0  0  0  0  0  0  0  0  0  0  0
    7.8064    0.1845    0.0000 H   0  0  0  0  0  0  0  0  0  0  0  0
   14.2984   -1.1068    0.0000 H   0  0  0  0  0  0  0  0  0  0  0  0
   10.7139   -2.0703    0.0000 H   0  0  0  0  0  0  0  0  0  0  0  0
    5.8819   -1.8282    0.0000 H   0  0  0  0  0  0  0  0  0  0  0  0
   12.7454   -1.4297    0.0000 H   0  0  0  0  0  0  0  0  0  0  0  0
   24.2743   -4.3357    0.0000 H   0  0  0  0  0  0  0  0  0  0  0  0
    7.4831   -1.7171    0.0000 H   0  0  0  0  0  0  0  0  0  0  0  0
    8.5901   -2.1331    0.0000 H   0  0  0  0  0  0  0  0  0  0  0  0
    4.8709   -3.2222    0.0000 H   0  0  0  0  0  0  0  0  0  0  0  0
    9.7354   -2.2765    0.0000 H   0  0  0  0  0  0  0  0  0  0  0  0
    5.7794    3.8506    0.0000 H   0  0  0  0  0  0  0  0  0  0  0  0
    5.0218    4.0982    0.0000 H   0  0  0  0  0  0  0  0  0  0  0  0
    2.8660   -0.2082    0.0000 H   0  0  0  0  0  0  0  0  0  0  0  0
    7.3135    2.5234    0.0000 H   0  0  0  0  0  0  0  0  0  0  0  0
    7.7745    4.6030    0.0000 H   0  0  0  0  0  0  0  0  0  0  0  0
   11.1966    0.0892    0.0000 H   0  0  0  0  0  0  0  0  0  0  0  0
   10.6033   -0.4431    0.0000 H   0  0  0  0  0  0  0  0  0  0  0  0
    2.8660   -3.4482    0.0000 H   0  0  0  0  0  0  0  0  0  0  0  0
    1.4631   -1.0182    0.0000 H   0  0  0  0  0  0  0  0  0  0  0  0
    8.3301    3.0697    0.0000 H   0  0  0  0  0  0  0  0  0  0  0  0
    9.0877    2.8220    0.0000 H   0  0  0  0  0  0  0  0  0  0  0  0
    1.4631   -2.6382    0.0000 H   0  0  0  0  0  0  0  0  0  0  0  0
   26.7031   -1.0049    0.0000 H   0  0  0  0  0  0  0  0  0  0  0  0
   25.5663    1.5604    0.0000 H   0  0  0  0  0  0  0  0  0  0  0  0
   12.6605   -5.5365    0.0000 H   0  0  0  0  0  0  0  0  0  0  0  0
   14.7490   -3.6626    0.0000 H   0  0  0  0  0  0  0  0  0  0  0  0
   26.1432   -3.1476    0.0000 H   0  0  0  0  0  0  0  0  0  0  0  0
   25.0754   -3.0335    0.0000 H   0  0  0  0  0  0  0  0  0  0  0  0
    9.1059    5.2200    0.0000 H   0  0  0  0  0  0  0  0  0  0  0  0
   28.1842   -0.3486    0.0000 H   0  0  0  0  0  0  0  0  0  0  0  0
   27.0474    2.2167    0.0000 H   0  0  0  0  0  0  0  0  0  0  0  0
   13.7424   -6.7423    0.0000 H   0  0  0  0  0  0  0  0  0  0  0  0
   15.8309   -4.8684    0.0000 H   0  0  0  0  0  0  0  0  0  0  0  0
   12.3883    0.2651    0.0000 H   0  0  0  0  0  0  0  0  0  0  0  0
   24.3434   -6.7869    0.0000 H   0  0  0  0  0  0  0  0  0  0  0  0
   24.9761   -5.9192    0.0000 H   0  0  0  0  0  0  0  0  0  0  0  0
   15.3276   -6.4082    0.0000 H   0  0  0  0  0  0  0  0  0  0  0  0
    7.5607   -4.3526    0.0000 H   0  0  0  0  0  0  0  0  0  0  0  0
    6.8436   -3.5534    0.0000 H   0  0  0  0  0  0  0  0  0  0  0  0
   10.3102    2.2699    0.0000 H   0  0  0  0  0  0  0  0  0  0  0  0
    9.7315    5.0155    0.0000 H   0  0  0  0  0  0  0  0  0  0  0  0
   22.6211   -6.6029    0.0000 H   0  0  0  0  0  0  0  0  0  0  0  0
    3.0000    3.9332    0.0000 H   0  0  0  0  0  0  0  0  0  0  0  0
    3.7993    4.6503    0.0000 H   0  0  0  0  0  0  0  0  0  0  0  0
   11.8954    2.6040    0.0000 H   0  0  0  0  0  0  0  0  0  0  0  0
   11.3167    5.3496    0.0000 H   0  0  0  0  0  0  0  0  0  0  0  0
    8.7314    6.5943    0.0000 H   0  0  0  0  0  0  0  0  0  0  0  0
    8.3347    7.3762    0.0000 H   0  0  0  0  0  0  0  0  0  0  0  0
    7.5528    6.9795    0.0000 H   0  0  0  0  0  0  0  0  0  0  0  0
   28.7696    2.0327    0.0000 H   0  0  0  0  0  0  0  0  0  0  0  0
   12.9631    4.8115    0.0000 H   0  0  0  0  0  0  0  0  0  0  0  0
  1 40  2  0  0  0  0
  2 45  2  0  0  0  0
  3 57  2  0  0  0  0
  4 66  2  0  0  0  0
  5 67  2  0  0  0  0
  6 68  2  0  0  0  0
  7 71  2  0  0  0  0
  8 75  1  0  0  0  0
  8170  1  0  0  0  0
  9 78  2  0  0  0  0
 10 85  2  0  0  0  0
 11 88  2  0  0  0  0
 12 92  1  0  0  0  0
 12186  1  0  0  0  0
 13 98  2  0  0  0  0
 14102  1  0  0  0  0
 14187  1  0  0  0  0
 15 18  1  0  0  0  0
 15 36  1  0  0  0  0
 15 46  1  0  0  0  0
 39 16  1  6  0  0  0
 16 40  1  0  0  0  0
 16110  1  0  0  0  0
 17 45  1  0  0  0  0
 50 17  1  1  0  0  0
 17125  1  0  0  0  0
 18 19  2  0  0  0  0
 19 47  1  0  0  0  0
 20 28  1  0  0  0  0
 20 52  1  0  0  0  0
 20 62  1  0  0  0  0
 48 21  1  6  0  0  0
 21 66  1  0  0  0  0
 21133  1  0  0  0  0
 56 22  1  6  0  0  0
 22 57  1  0  0  0  0
 22137  1  0  0  0  0
 23 49  1  0  0  0  0
 23 80  1  0  0  0  0
 23142  1  0  0  0  0
 54 24  1  6  0  0  0
 24 71  1  0  0  0  0
 24141  1  0  0  0  0
 25 63  1  0  0  0  0
 25 65  1  0  0  0  0
 25145  1  0  0  0  0
 64 26  1  1  0  0  0
 26 68  1  0  0  0  0
 26146  1  0  0  0  0
 61 27  1  6  0  0  0
 27 78  1  0  0  0  0
 27150  1  0  0  0  0
 28 29  2  0  0  0  0
 29 59  1  0  0  0  0
 30 67  1  0  0  0  0
 30163  1  0  0  0  0
 30164  1  0  0  0  0
 76 31  1  1  0  0  0
 31 98  1  0  0  0  0
 31165  1  0  0  0  0
 32 80  1  0  0  0  0
 32171  1  0  0  0  0
 32172  1  0  0  0  0
 33 85  1  0  0  0  0
 33174  1  0  0  0  0
 33175  1  0  0  0  0
 34 80  2  0  0  0  0
 34178  1  0  0  0  0
 35 88  1  0  0  0  0
 35179  1  0  0  0  0
 35180  1  0  0  0  0
 36 37  1  1  0  0  0
 36 40  1  0  0  0  0
 36103  1  0  0  0  0
 37 38  1  0  0  0  0
 37104  1  0  0  0  0
 37105  1  0  0  0  0
 38 42  1  0  0  0  0
 38 43  1  0  0  0  0
 38106  1  0  0  0  0
 39 41  1  0  0  0  0
 39 45  1  0  0  0  0
 39107  1  0  0  0  0
 41 44  1  0  0  0  0
 41108  1  0  0  0  0
 41109  1  0  0  0  0
 42114  1  0  0  0  0
 42115  1  0  0  0  0
 42116  1  0  0  0  0
 43111  1  0  0  0  0
 43112  1  0  0  0  0
 43113  1  0  0  0  0
 44 49  1  0  0  0  0
 44117  1  0  0  0  0
 44118  1  0  0  0  0
 46 47  2  0  0  0  0
 46119  1  0  0  0  0
 47 52  1  0  0  0  0
 48 51  1  0  0  0  0
 48 57  1  0  0  0  0
 48120  1  0  0  0  0
 49121  1  0  0  0  0
 49122  1  0  0  0  0
 50 55  1  0  0  0  0
 50 67  1  0  0  0  0
 50126  1  0  0  0  0
 51 53  1  0  0  0  0
 51123  1  0  0  0  0
 51124  1  0  0  0  0
 52127  1  0  0  0  0
 52128  1  0  0  0  0
 53 58  1  0  0  0  0
 53 65  2  0  0  0  0
 54 59  1  0  0  0  0
 54 60  1  0  0  0  0
 54129  1  0  0  0  0
 55 70  1  0  0  0  0
 55130  1  0  0  0  0
 55131  1  0  0  0  0
 56 68  1  0  0  0  0
 56 69  1  0  0  0  0
 56132  1  0  0  0  0
 58 63  1  0  0  0  0
 58 73  2  0  0  0  0
 59 62  2  0  0  0  0
 60 74  1  0  0  0  0
 60134  1  0  0  0  0
 60135  1  0  0  0  0
 61 66  1  0  0  0  0
 61 72  1  0  0  0  0
 61136  1  0  0  0  0
 62138  1  0  0  0  0
 63 77  2  0  0  0  0
 64 71  1  0  0  0  0
 64 75  1  0  0  0  0
 64139  1  0  0  0  0
 65140  1  0  0  0  0
 69 85  1  0  0  0  0
 69143  1  0  0  0  0
 69144  1  0  0  0  0
 70 83  2  0  0  0  0
 70 84  1  0  0  0  0
 72 88  1  0  0  0  0
 72147  1  0  0  0  0
 72148  1  0  0  0  0
 73 79  1  0  0  0  0
 73149  1  0  0  0  0
 74 86  2  0  0  0  0
 74 87  1  0  0  0  0
 75152  1  0  0  0  0
 75153  1  0  0  0  0
 76 78  1  0  0  0  0
 76 81  1  0  0  0  0
 76151  1  0  0  0  0
 77 82  1  0  0  0  0
 77154  1  0  0  0  0
 79 82  2  0  0  0  0
 79155  1  0  0  0  0
 81 89  1  0  0  0  0
 81156  1  0  0  0  0
 81157  1  0  0  0  0
 82158  1  0  0  0  0
 83 90  1  0  0  0  0
 83159  1  0  0  0  0
 84 91  2  0  0  0  0
 84160  1  0  0  0  0
 86 93  1  0  0  0  0
 86161  1  0  0  0  0
 87 94  2  0  0  0  0
 87162  1  0  0  0  0
 89 96  2  0  0  0  0
 89 97  1  0  0  0  0
 90 92  2  0  0  0  0
 90166  1  0  0  0  0
 91 92  1  0  0  0  0
 91167  1  0  0  0  0
 93 95  2  0  0  0  0
 93168  1  0  0  0  0
 94 95  1  0  0  0  0
 94169  1  0  0  0  0
 95173  1  0  0  0  0
 96 99  1  0  0  0  0
 96176  1  0  0  0  0
 97100  2  0  0  0  0
 97177  1  0  0  0  0
 98101  1  0  0  0  0
 99102  2  0  0  0  0
 99181  1  0  0  0  0
100102  1  0  0  0  0
100182  1  0  0  0  0
101183  1  0  0  0  0
101184  1  0  0  0  0
101185  1  0  0  0  0
M  END
> <PUBCHEM_COMPOUND_CID>
90324512

> <PUBCHEM_COMPOUND_CANONICALIZED>
0

> <PUBCHEM_CACTVS_COMPLEXITY>
2830

> <PUBCHEM_CACTVS_HBOND_ACCEPTOR>
19

> <PUBCHEM_CACTVS_HBOND_DONOR>
18

> <PUBCHEM_CACTVS_ROTATABLE_BOND>
40

> <PUBCHEM_CACTVS_SUBSKEYS>
AAADcfB//AAAAAAAAAAAAAAAAAAAAWLFgAAwYMGAAAAAAFgB/gAAHgAYCAAADSzhngY/xvLJkgCqAzV3dACChCSxsiAZ2aG+fJiKdv7C2bOUcAhm9hPY2AedyeCOoAAAAAACAABAAAAAAAQAAAAAAAAAAA==

> <PUBCHEM_IUPAC_INCHI>
InChI=1S/C67H85N21O14/c1-36(2)24-56(66(102)76-47(14-9-23-73-67(71)72)60(96)78-49(59(70)95)26-39-15-19-43(91)20-16-39)88-33-42(83-86-88)32-87-34-54(84-85-87)48(25-38-10-5-4-6-11-38)77-65(101)55(35-89)82-64(100)53(30-58(69)94)81-62(98)51(28-41-31-74-46-13-8-7-12-45(41)46)79-63(99)52(29-57(68)93)80-61(97)50(75-37(3)90)27-40-17-21-44(92)22-18-40/h4-8,10-13,15-22,31,33-34,36,47-53,55-56,74,89,91-92H,9,14,23-30,32,35H2,1-3H3,(H2,68,93)(H2,69,94)(H2,70,95)(H,75,90)(H,76,102)(H,77,101)(H,78,96)(H,79,99)(H,80,97)(H,81,98)(H,82,100)(H4,71,72,73)/t47-,48-,49-,50-,51-,52-,53-,55-,56-/m0/s1

> <PUBCHEM_IUPAC_INCHIKEY>
DMJZJHRTXXOAMU-JXPKPWKJSA-N

> <PUBCHEM_XLOGP3_AA>
-1.5

> <PUBCHEM_EXACT_MASS>
1407.658

> <PUBCHEM_MOLECULAR_FORMULA>
C67H85N21O14

> <PUBCHEM_MOLECULAR_WEIGHT>
1408.55

> <PUBCHEM_OPENEYE_CAN_SMILES>
CC(C)CC(C(=O)NC(CCCNC(=N)N)C(=O)NC(CC1=CC=C(C=C1)O)C(=O)N)N2C=C(N=N2)CN3C=C(N=N3)C(CC4=CC=CC=C4)NC(=O)C(CO)NC(=O)C(CC(=O)N)NC(=O)C(CC5=CNC6=CC=CC=C65)NC(=O)C(CC(=O)N)NC(=O)C(CC7=CC=C(C=C7)O)NC(=O)C

> <PUBCHEM_OPENEYE_ISO_SMILES>
CC(C)C[C@@H](C(=O)N[C@@H](CCCNC(=N)N)C(=O)N[C@@H](CC1=CC=C(C=C1)O)C(=O)N)N2C=C(N=N2)CN3C=C(N=N3)[C@H](CC4=CC=CC=C4)NC(=O)[C@H](CO)NC(=O)[C@H](CC(=O)N)NC(=O)[C@H](CC5=CNC6=CC=CC=C65)NC(=O)[C@H](CC(=O)N)NC(=O)[C@H](CC7=CC=C(C=C7)O)NC(=O)C

> <PUBCHEM_CACTVS_TPSA>
562

> <PUBCHEM_MONOISOTOPIC_WEIGHT>
1407.658

> <PUBCHEM_TOTAL_CHARGE>
0

> <PUBCHEM_HEAVY_ATOM_COUNT>
102

> <PUBCHEM_ATOM_DEF_STEREO_COUNT>
9

> <PUBCHEM_ATOM_UDEF_STEREO_COUNT>
0

> <PUBCHEM_BOND_DEF_STEREO_COUNT>
0

> <PUBCHEM_BOND_UDEF_STEREO_COUNT>
0

> <PUBCHEM_ISOTOPIC_ATOM_COUNT>
0

> <PUBCHEM_COMPONENT_COUNT>
1

> <PUBCHEM_CACTVS_TAUTO_COUNT>
1000

> <PUBCHEM_COORDINATE_TYPE>
1
5
255

> <PUBCHEM_BONDANNOTATIONS>
100  102  8
15  18  8
15  46  8
39  16  6
50  17  5
18  19  8
19  47  8
20  28  8
20  62  8
48  21  6
56  22  6
54  24  6
25  63  8
25  65  8
64  26  5
61  27  6
28  29  8
29  59  8
76  31  5
36  37  5
46  47  8
53  58  8
53  65  8
58  63  8
58  73  8
59  62  8
63  77  8
70  83  8
70  84  8
73  79  8
74  86  8
74  87  8
77  82  8
79  82  8
83  90  8
84  91  8
86  93  8
87  94  8
89  96  8
89  97  8
90  92  8
91  92  8
93  95  8
94  95  8
96  99  8
97  100  8
99  102  8

$$$$
