118735594
  -OEChem-03161706422D

188191  0     1  0  0  0  0  0999 V2000
    6.9244    4.0926    0.0000 O   0  0  0  0  0  0  0  0  0  0  0  0
    8.8349    7.1503    0.0000 O   0  0  0  0  0  0  0  0  0  0  0  0
   17.2062   -3.4761    0.0000 O   0  0  0  0  0  0  0  0  0  0  0  0
   17.8740   -4.2204    0.0000 O   0  0  0  0  0  0  0  0  0  0  0  0
   19.5669   -7.4038    0.0000 O   0  0  0  0  0  0  0  0  0  0  0  0
   11.1956    3.2226    0.0000 O   0  0  0  0  0  0  0  0  0  0  0  0
   15.5133   -0.2927    0.0000 O   0  0  0  0  0  0  0  0  0  0  0  0
    9.2851    0.1648    0.0000 O   0  0  0  0  0  0  0  0  0  0  0  0
   12.2671   -1.8619    0.0000 O   0  0  0  0  0  0  0  0  0  0  0  0
   13.1991    0.9897    0.0000 O   0  0  0  0  0  0  0  0  0  0  0  0
    7.1420   10.3338    0.0000 O   0  0  0  0  0  0  0  0  0  0  0  0
   18.8525   -4.0142    0.0000 O   0  0  0  0  0  0  0  0  0  0  0  0
   17.6564  -10.4616    0.0000 O   0  0  0  0  0  0  0  0  0  0  0  0
   16.4918   -0.0865    0.0000 O   0  0  0  0  0  0  0  0  0  0  0  0
    9.7204   12.6472    0.0000 O   0  0  0  0  0  0  0  0  0  0  0  0
   13.4317  -12.2370    0.0000 O   0  0  0  0  0  0  0  0  0  0  0  0
    8.2136    5.2493    0.0000 N   0  0  0  0  0  0  0  0  0  0  0  0
    9.5492    3.7607    0.0000 N   0  0  0  0  0  0  0  0  0  0  0  0
   16.5849   -5.3772    0.0000 N   0  0  0  0  0  0  0  0  0  0  0  0
   17.9206   -6.8658    0.0000 N   0  0  0  0  0  0  0  0  0  0  0  0
    7.1885    7.6884    0.0000 N   0  0  0  0  0  0  0  0  0  0  0  0
   15.5598   -2.9380    0.0000 N   0  0  0  0  0  0  0  0  0  0  0  0
   14.6279   -7.3990    0.0000 N   0  0  0  0  0  0  0  0  0  0  0  0
   18.9456   -9.3049    0.0000 N   0  0  0  0  0  0  0  0  0  0  0  0
   14.2242   -1.4494    0.0000 N   0  0  0  0  0  0  0  0  0  0  0  0
   10.5743    1.3216    0.0000 N   0  0  0  0  0  0  0  0  0  0  0  0
   11.9100   -0.1670    0.0000 N   0  0  0  0  0  0  0  0  0  0  0  0
    4.2530    7.0698    0.0000 N   0  0  0  0  0  0  0  0  0  0  0  0
   14.7209  -11.0803    0.0000 N   0  0  0  0  0  0  0  0  0  0  0  0
    5.8528    9.1770    0.0000 N   0  0  0  0  0  0  0  0  0  0  0  0
   20.4989   -4.5523    0.0000 N   0  0  0  0  0  0  0  0  0  0  0  0
   18.1382   -0.6245    0.0000 N   0  0  0  0  0  0  0  0  0  0  0  0
    2.6067    7.6078    0.0000 N   0  0  0  0  0  0  0  0  0  0  0  0
    2.9639    5.9130    0.0000 N   0  0  0  0  0  0  0  0  0  0  0  0
    8.5708    3.5545    0.0000 C   0  0  1  0  0  0  0  0  0  0  0  0
    8.2601    2.6040    0.0000 C   0  0  0  0  0  0  0  0  0  0  0  0
    7.2816    2.3977    0.0000 C   0  0  0  0  0  0  0  0  0  0  0  0
    7.5457    5.9936    0.0000 C   0  0  1  0  0  0  0  0  0  0  0  0
    7.9029    4.2988    0.0000 C   0  0  0  0  0  0  0  0  0  0  0  0
   15.9170   -4.6328    0.0000 C   0  0  1  0  0  0  0  0  0  0  0  0
    6.5672    5.7874    0.0000 C   0  0  0  0  0  0  0  0  0  0  0  0
   14.9385   -4.8391    0.0000 C   0  0  0  0  0  0  0  0  0  0  0  0
    6.9709    1.4472    0.0000 C   0  0  0  0  0  0  0  0  0  0  0  0
    6.6137    3.1420    0.0000 C   0  0  0  0  0  0  0  0  0  0  0  0
   14.6279   -5.7896    0.0000 C   0  0  0  0  0  0  0  0  0  0  0  0
    5.8994    6.5317    0.0000 C   0  0  0  0  0  0  0  0  0  0  0  0
   18.2312   -5.9152    0.0000 C   0  0  2  0  0  0  0  0  0  0  0  0
   18.2777   -8.5606    0.0000 C   0  0  1  0  0  0  0  0  0  0  0  0
    7.8564    6.9441    0.0000 C   0  0  0  0  0  0  0  0  0  0  0  0
   17.2992   -8.7668    0.0000 C   0  0  0  0  0  0  0  0  0  0  0  0
   16.2277   -3.6823    0.0000 C   0  0  0  0  0  0  0  0  0  0  0  0
   16.9886   -9.7173    0.0000 C   0  0  0  0  0  0  0  0  0  0  0  0
   13.6816   -6.0943    0.0000 C   0  0  0  0  0  0  0  0  0  0  0  0
   17.5634   -5.1709    0.0000 C   0  0  0  0  0  0  0  0  0  0  0  0
   15.8705   -1.9875    0.0000 C   0  0  1  0  0  0  0  0  0  0  0  0
    7.4992    8.6389    0.0000 C   0  0  1  0  0  0  0  0  0  0  0  0
   18.5884   -7.6100    0.0000 C   0  0  0  0  0  0  0  0  0  0  0  0
   10.2171    3.0164    0.0000 C   0  0  0  0  0  0  0  0  0  0  0  0
   13.6816   -7.0943    0.0000 C   0  0  0  0  0  0  0  0  0  0  0  0
   19.2097   -5.7090    0.0000 C   0  0  0  0  0  0  0  0  0  0  0  0
   15.2115   -6.5943    0.0000 C   0  0  0  0  0  0  0  0  0  0  0  0
   16.0101   -9.9235    0.0000 C   0  0  0  0  0  0  0  0  0  0  0  0
    4.9209    6.3255    0.0000 C   0  0  0  0  0  0  0  0  0  0  0  0
    9.9064    2.0659    0.0000 C   0  0  0  0  0  0  0  0  0  0  0  0
    8.4777    8.8452    0.0000 C   0  0  0  0  0  0  0  0  0  0  0  0
   10.9315   -0.3733    0.0000 C   0  0  1  0  0  0  0  0  0  0  0  0
   16.8490   -1.7813    0.0000 C   0  0  0  0  0  0  0  0  0  0  0  0
   15.2027   -1.2432    0.0000 C   0  0  0  0  0  0  0  0  0  0  0  0
   13.5563   -0.7051    0.0000 C   0  0  2  0  0  0  0  0  0  0  0  0
   12.8156   -5.5943    0.0000 C   0  0  0  0  0  0  0  0  0  0  0  0
   15.6994  -10.8741    0.0000 C   0  0  0  0  0  0  0  0  0  0  0  0
   10.6208   -1.3238    0.0000 C   0  0  0  0  0  0  0  0  0  0  0  0
   12.8156   -7.5943    0.0000 C   0  0  0  0  0  0  0  0  0  0  0  0
   10.2636    0.3710    0.0000 C   0  0  0  0  0  0  0  0  0  0  0  0
   12.5778   -0.9113    0.0000 C   0  0  0  0  0  0  0  0  0  0  0  0
    6.8314    9.3832    0.0000 C   0  0  0  0  0  0  0  0  0  0  0  0
    8.7884    9.7957    0.0000 C   0  0  0  0  0  0  0  0  0  0  0  0
   19.5204   -4.7585    0.0000 C   0  0  0  0  0  0  0  0  0  0  0  0
   11.9496   -6.0943    0.0000 C   0  0  0  0  0  0  0  0  0  0  0  0
   11.9496   -7.0943    0.0000 C   0  0  0  0  0  0  0  0  0  0  0  0
   13.8670    0.2454    0.0000 C   0  0  0  0  0  0  0  0  0  0  0  0
   18.6349  -10.2554    0.0000 C   0  0  0  0  0  0  0  0  0  0  0  0
    9.6423   -1.5300    0.0000 C   0  0  0  0  0  0  0  0  0  0  0  0
   17.1597   -0.8308    0.0000 C   0  0  0  0  0  0  0  0  0  0  0  0
    8.1205   10.5400    0.0000 C   0  0  0  0  0  0  0  0  0  0  0  0
    9.7669   10.0019    0.0000 C   0  0  0  0  0  0  0  0  0  0  0  0
   19.3028  -10.9997    0.0000 C   0  0  0  0  0  0  0  0  0  0  0  0
    8.9744   -0.7857    0.0000 C   0  0  0  0  0  0  0  0  0  0  0  0
    9.3316   -2.4805    0.0000 C   0  0  0  0  0  0  0  0  0  0  0  0
    3.2745    6.8635    0.0000 C   0  0  0  0  0  0  0  0  0  0  0  0
   14.4102  -12.0308    0.0000 C   0  0  0  0  0  0  0  0  0  0  0  0
    8.4312   11.4905    0.0000 C   0  0  0  0  0  0  0  0  0  0  0  0
   10.0775   10.9524    0.0000 C   0  0  0  0  0  0  0  0  0  0  0  0
    9.4097   11.6967    0.0000 C   0  0  0  0  0  0  0  0  0  0  0  0
    7.9959   -0.9919    0.0000 C   0  0  0  0  0  0  0  0  0  0  0  0
    8.3531   -2.6867    0.0000 C   0  0  0  0  0  0  0  0  0  0  0  0
    7.6853   -1.9424    0.0000 C   0  0  0  0  0  0  0  0  0  0  0  0
   15.0781  -12.7751    0.0000 C   0  0  0  0  0  0  0  0  0  0  0  0
    8.7634    4.1438    0.0000 H   0  0  0  0  0  0  0  0  0  0  0  0
    8.2806    1.9843    0.0000 H   0  0  0  0  0  0  0  0  0  0  0  0
    8.8739    2.5166    0.0000 H   0  0  0  0  0  0  0  0  0  0  0  0
    7.4742    2.9870    0.0000 H   0  0  0  0  0  0  0  0  0  0  0  0
    8.1524    6.1214    0.0000 H   0  0  0  0  0  0  0  0  0  0  0  0
   15.7244   -5.2222    0.0000 H   0  0  0  0  0  0  0  0  0  0  0  0
    6.0409    5.4597    0.0000 H   0  0  0  0  0  0  0  0  0  0  0  0
    6.7985    5.2121    0.0000 H   0  0  0  0  0  0  0  0  0  0  0  0
    8.8202    5.3772    0.0000 H   0  0  0  0  0  0  0  0  0  0  0  0
   14.9180   -4.2194    0.0000 H   0  0  0  0  0  0  0  0  0  0  0  0
   14.3247   -4.7517    0.0000 H   0  0  0  0  0  0  0  0  0  0  0  0
    9.7419    4.3500    0.0000 H   0  0  0  0  0  0  0  0  0  0  0  0
    7.0752    3.5561    0.0000 H   0  0  0  0  0  0  0  0  0  0  0  0
    6.1997    3.6035    0.0000 H   0  0  0  0  0  0  0  0  0  0  0  0
    6.1523    2.7280    0.0000 H   0  0  0  0  0  0  0  0  0  0  0  0
    6.3816    1.6398    0.0000 H   0  0  0  0  0  0  0  0  0  0  0  0
    6.7783    0.8579    0.0000 H   0  0  0  0  0  0  0  0  0  0  0  0
    7.5602    1.2546    0.0000 H   0  0  0  0  0  0  0  0  0  0  0  0
    6.4257    6.8593    0.0000 H   0  0  0  0  0  0  0  0  0  0  0  0
    5.6681    7.1069    0.0000 H   0  0  0  0  0  0  0  0  0  0  0  0
   18.6453   -6.3767    0.0000 H   0  0  0  0  0  0  0  0  0  0  0  0
   18.0851   -9.1499    0.0000 H   0  0  0  0  0  0  0  0  0  0  0  0
   17.2787   -8.1471    0.0000 H   0  0  0  0  0  0  0  0  0  0  0  0
   16.6854   -8.6794    0.0000 H   0  0  0  0  0  0  0  0  0  0  0  0
   16.3923   -5.9665    0.0000 H   0  0  0  0  0  0  0  0  0  0  0  0
   17.0091  -10.3370    0.0000 H   0  0  0  0  0  0  0  0  0  0  0  0
   17.6024   -9.8047    0.0000 H   0  0  0  0  0  0  0  0  0  0  0  0
   15.2638   -2.1154    0.0000 H   0  0  0  0  0  0  0  0  0  0  0  0
    6.8925    8.5111    0.0000 H   0  0  0  0  0  0  0  0  0  0  0  0
   17.3139   -6.9936    0.0000 H   0  0  0  0  0  0  0  0  0  0  0  0
    6.5819    7.5606    0.0000 H   0  0  0  0  0  0  0  0  0  0  0  0
   14.9532   -3.0659    0.0000 H   0  0  0  0  0  0  0  0  0  0  0  0
   19.2303   -6.3287    0.0000 H   0  0  0  0  0  0  0  0  0  0  0  0
   19.8235   -5.7964    0.0000 H   0  0  0  0  0  0  0  0  0  0  0  0
   15.9895   -9.3039    0.0000 H   0  0  0  0  0  0  0  0  0  0  0  0
   15.3962   -9.8362    0.0000 H   0  0  0  0  0  0  0  0  0  0  0  0
   15.8315   -6.5943    0.0000 H   0  0  0  0  0  0  0  0  0  0  0  0
    4.3945    5.9978    0.0000 H   0  0  0  0  0  0  0  0  0  0  0  0
    5.1521    5.7502    0.0000 H   0  0  0  0  0  0  0  0  0  0  0  0
    9.3595    2.3579    0.0000 H   0  0  0  0  0  0  0  0  0  0  0  0
    9.5239    1.5780    0.0000 H   0  0  0  0  0  0  0  0  0  0  0  0
   14.8205   -7.9884    0.0000 H   0  0  0  0  0  0  0  0  0  0  0  0
    8.4983    8.2255    0.0000 H   0  0  0  0  0  0  0  0  0  0  0  0
    9.0915    8.7578    0.0000 H   0  0  0  0  0  0  0  0  0  0  0  0
   11.1241    0.2161    0.0000 H   0  0  0  0  0  0  0  0  0  0  0  0
   16.8696   -2.4009    0.0000 H   0  0  0  0  0  0  0  0  0  0  0  0
   17.4628   -1.8686    0.0000 H   0  0  0  0  0  0  0  0  0  0  0  0
   19.5523   -9.1770    0.0000 H   0  0  0  0  0  0  0  0  0  0  0  0
   13.3637   -1.2944    0.0000 H   0  0  0  0  0  0  0  0  0  0  0  0
   12.8156   -4.9743    0.0000 H   0  0  0  0  0  0  0  0  0  0  0  0
   15.7200  -11.4937    0.0000 H   0  0  0  0  0  0  0  0  0  0  0  0
   16.3132  -10.9614    0.0000 H   0  0  0  0  0  0  0  0  0  0  0  0
   10.6414   -1.9434    0.0000 H   0  0  0  0  0  0  0  0  0  0  0  0
   11.2346   -1.4111    0.0000 H   0  0  0  0  0  0  0  0  0  0  0  0
   14.0315   -2.0387    0.0000 H   0  0  0  0  0  0  0  0  0  0  0  0
   12.8156   -8.2143    0.0000 H   0  0  0  0  0  0  0  0  0  0  0  0
   11.1810    1.4494    0.0000 H   0  0  0  0  0  0  0  0  0  0  0  0
   12.1026    0.4223    0.0000 H   0  0  0  0  0  0  0  0  0  0  0  0
   11.4127   -5.7843    0.0000 H   0  0  0  0  0  0  0  0  0  0  0  0
   11.4127   -7.4043    0.0000 H   0  0  0  0  0  0  0  0  0  0  0  0
   14.4139   -0.0466    0.0000 H   0  0  0  0  0  0  0  0  0  0  0  0
   14.2495    0.7333    0.0000 H   0  0  0  0  0  0  0  0  0  0  0  0
   14.3068  -10.6188    0.0000 H   0  0  0  0  0  0  0  0  0  0  0  0
    7.5138   10.4121    0.0000 H   0  0  0  0  0  0  0  0  0  0  0  0
   10.1809    9.5404    0.0000 H   0  0  0  0  0  0  0  0  0  0  0  0
   18.8413  -11.4138    0.0000 H   0  0  0  0  0  0  0  0  0  0  0  0
   19.7168  -11.4612    0.0000 H   0  0  0  0  0  0  0  0  0  0  0  0
   19.7642  -10.5856    0.0000 H   0  0  0  0  0  0  0  0  0  0  0  0
    5.4388    9.6385    0.0000 H   0  0  0  0  0  0  0  0  0  0  0  0
    5.6602    8.5877    0.0000 H   0  0  0  0  0  0  0  0  0  0  0  0
    9.1671   -0.1964    0.0000 H   0  0  0  0  0  0  0  0  0  0  0  0
    9.7457   -2.9420    0.0000 H   0  0  0  0  0  0  0  0  0  0  0  0
   20.6915   -3.9630    0.0000 H   0  0  0  0  0  0  0  0  0  0  0  0
   20.9130   -5.0137    0.0000 H   0  0  0  0  0  0  0  0  0  0  0  0
    8.0171   11.9520    0.0000 H   0  0  0  0  0  0  0  0  0  0  0  0
   10.6842   11.0803    0.0000 H   0  0  0  0  0  0  0  0  0  0  0  0
   18.3308   -0.0352    0.0000 H   0  0  0  0  0  0  0  0  0  0  0  0
   18.5522   -1.0860    0.0000 H   0  0  0  0  0  0  0  0  0  0  0  0
   13.3917    1.5790    0.0000 H   0  0  0  0  0  0  0  0  0  0  0  0
    7.5819   -0.5304    0.0000 H   0  0  0  0  0  0  0  0  0  0  0  0
    8.1605   -3.2761    0.0000 H   0  0  0  0  0  0  0  0  0  0  0  0
    7.0786   -2.0703    0.0000 H   0  0  0  0  0  0  0  0  0  0  0  0
   14.6166  -13.1892    0.0000 H   0  0  0  0  0  0  0  0  0  0  0  0
   15.4921  -13.2366    0.0000 H   0  0  0  0  0  0  0  0  0  0  0  0
   15.5395  -12.3610    0.0000 H   0  0  0  0  0  0  0  0  0  0  0  0
    2.3572    5.7852    0.0000 H   0  0  0  0  0  0  0  0  0  0  0  0
    3.3779    5.4516    0.0000 H   0  0  0  0  0  0  0  0  0  0  0  0
    2.0000    7.4800    0.0000 H   0  0  0  0  0  0  0  0  0  0  0  0
    2.7993    8.1972    0.0000 H   0  0  0  0  0  0  0  0  0  0  0  0
   10.3270   12.7751    0.0000 H   0  0  0  0  0  0  0  0  0  0  0  0
  1 39  2  0  0  0  0
  2 49  2  0  0  0  0
  3 51  2  0  0  0  0
  4 54  2  0  0  0  0
  5 57  2  0  0  0  0
  6 58  2  0  0  0  0
  7 68  2  0  0  0  0
  8 74  2  0  0  0  0
  9 75  2  0  0  0  0
 10 81  1  0  0  0  0
 10177  1  0  0  0  0
 11 76  2  0  0  0  0
 12 78  2  0  0  0  0
 13 82  2  0  0  0  0
 14 84  2  0  0  0  0
 15 94  1  0  0  0  0
 15188  1  0  0  0  0
 16 91  2  0  0  0  0
 38 17  1  1  0  0  0
 17 39  1  0  0  0  0
 17107  1  0  0  0  0
 35 18  1  1  0  0  0
 18 58  1  0  0  0  0
 18110  1  0  0  0  0
 40 19  1  1  0  0  0
 19 54  1  0  0  0  0
 19123  1  0  0  0  0
 47 20  1  6  0  0  0
 20 57  1  0  0  0  0
 20128  1  0  0  0  0
 21 49  1  0  0  0  0
 56 21  1  6  0  0  0
 21129  1  0  0  0  0
 22 51  1  0  0  0  0
 55 22  1  6  0  0  0
 22130  1  0  0  0  0
 23 59  1  0  0  0  0
 23 61  1  0  0  0  0
 23140  1  0  0  0  0
 48 24  1  1  0  0  0
 24 82  1  0  0  0  0
 24146  1  0  0  0  0
 25 68  1  0  0  0  0
 69 25  1  6  0  0  0
 25153  1  0  0  0  0
 26 64  1  0  0  0  0
 26 74  1  0  0  0  0
 26155  1  0  0  0  0
 66 27  1  1  0  0  0
 27 75  1  0  0  0  0
 27156  1  0  0  0  0
 28 63  1  0  0  0  0
 28 90  2  0  0  0  0
 29 71  1  0  0  0  0
 29 91  1  0  0  0  0
 29161  1  0  0  0  0
 30 76  1  0  0  0  0
 30167  1  0  0  0  0
 30168  1  0  0  0  0
 31 78  1  0  0  0  0
 31171  1  0  0  0  0
 31172  1  0  0  0  0
 32 84  1  0  0  0  0
 32175  1  0  0  0  0
 32176  1  0  0  0  0
 33 90  1  0  0  0  0
 33186  1  0  0  0  0
 33187  1  0  0  0  0
 34 90  1  0  0  0  0
 34184  1  0  0  0  0
 34185  1  0  0  0  0
 35 36  1  0  0  0  0
 35 39  1  0  0  0  0
 35 99  1  0  0  0  0
 36 37  1  0  0  0  0
 36100  1  0  0  0  0
 36101  1  0  0  0  0
 37 43  1  0  0  0  0
 37 44  1  0  0  0  0
 37102  1  0  0  0  0
 38 41  1  0  0  0  0
 38 49  1  0  0  0  0
 38103  1  0  0  0  0
 40 42  1  0  0  0  0
 40 51  1  0  0  0  0
 40104  1  0  0  0  0
 41 46  1  0  0  0  0
 41105  1  0  0  0  0
 41106  1  0  0  0  0
 42 45  1  0  0  0  0
 42108  1  0  0  0  0
 42109  1  0  0  0  0
 43114  1  0  0  0  0
 43115  1  0  0  0  0
 43116  1  0  0  0  0
 44111  1  0  0  0  0
 44112  1  0  0  0  0
 44113  1  0  0  0  0
 45 53  1  0  0  0  0
 45 61  2  0  0  0  0
 46 63  1  0  0  0  0
 46117  1  0  0  0  0
 46118  1  0  0  0  0
 47 54  1  0  0  0  0
 47 60  1  0  0  0  0
 47119  1  0  0  0  0
 48 50  1  0  0  0  0
 48 57  1  0  0  0  0
 48120  1  0  0  0  0
 50 52  1  0  0  0  0
 50121  1  0  0  0  0
 50122  1  0  0  0  0
 52 62  1  0  0  0  0
 52124  1  0  0  0  0
 52125  1  0  0  0  0
 53 59  1  0  0  0  0
 53 70  2  0  0  0  0
 55 67  1  0  0  0  0
 55 68  1  0  0  0  0
 55126  1  0  0  0  0
 56 65  1  0  0  0  0
 56 76  1  0  0  0  0
 56127  1  0  0  0  0
 58 64  1  0  0  0  0
 59 73  2  0  0  0  0
 60 78  1  0  0  0  0
 60131  1  0  0  0  0
 60132  1  0  0  0  0
 61135  1  0  0  0  0
 62 71  1  0  0  0  0
 62133  1  0  0  0  0
 62134  1  0  0  0  0
 63136  1  0  0  0  0
 63137  1  0  0  0  0
 64138  1  0  0  0  0
 64139  1  0  0  0  0
 65 77  1  0  0  0  0
 65141  1  0  0  0  0
 65142  1  0  0  0  0
 66 72  1  0  0  0  0
 66 74  1  0  0  0  0
 66143  1  0  0  0  0
 67 84  1  0  0  0  0
 67144  1  0  0  0  0
 67145  1  0  0  0  0
 69 75  1  0  0  0  0
 69 81  1  0  0  0  0
 69147  1  0  0  0  0
 70 79  1  0  0  0  0
 70148  1  0  0  0  0
 71149  1  0  0  0  0
 71150  1  0  0  0  0
 72 83  1  0  0  0  0
 72151  1  0  0  0  0
 72152  1  0  0  0  0
 73 80  1  0  0  0  0
 73154  1  0  0  0  0
 77 85  2  0  0  0  0
 77 86  1  0  0  0  0
 79 80  2  0  0  0  0
 79157  1  0  0  0  0
 80158  1  0  0  0  0
 81159  1  0  0  0  0
 81160  1  0  0  0  0
 82 87  1  0  0  0  0
 83 88  2  0  0  0  0
 83 89  1  0  0  0  0
 85 92  1  0  0  0  0
 85162  1  0  0  0  0
 86 93  2  0  0  0  0
 86163  1  0  0  0  0
 87164  1  0  0  0  0
 87165  1  0  0  0  0
 87166  1  0  0  0  0
 88 95  1  0  0  0  0
 88169  1  0  0  0  0
 89 96  2  0  0  0  0
 89170  1  0  0  0  0
 91 98  1  0  0  0  0
 92 94  2  0  0  0  0
 92173  1  0  0  0  0
 93 94  1  0  0  0  0
 93174  1  0  0  0  0
 95 97  2  0  0  0  0
 95178  1  0  0  0  0
 96 97  1  0  0  0  0
 96179  1  0  0  0  0
 97180  1  0  0  0  0
 98181  1  0  0  0  0
 98182  1  0  0  0  0
 98183  1  0  0  0  0
M  END
> <PUBCHEM_COMPOUND_CID>
118735594

> <PUBCHEM_COMPOUND_CANONICALIZED>
1

> <PUBCHEM_CACTVS_COMPLEXITY>
2760

> <PUBCHEM_CACTVS_HBOND_ACCEPTOR>
17

> <PUBCHEM_CACTVS_HBOND_DONOR>
19

> <PUBCHEM_CACTVS_ROTATABLE_BOND>
42

> <PUBCHEM_CACTVS_SUBSKEYS>
AAADcfB//gAAAAAAAAAAAAAAAAAAAWAAAAAwYMAAAAAAAFgB9AAAHgAQCAAADSzhngY/xvLJkgCoAzV3dACCgCExIiAI2aG+bJgKdv7C0bOUcAhm9hHY2AedyeCOoAAAAAACAABAAAAAAAQAAAAAAAAAAA==

> <PUBCHEM_IUPAC_OPENEYE_NAME>
(2S)-N-[(1S)-2-[[(1S)-3-amino-1-[[(1S)-2-[[(1S)-2-[[2-[[(1S)-1-[[(1S)-1-[[(1S)-2-amino-1-[(4-hydroxyphenyl)methyl]-2-oxo-ethyl]carbamoyl]-4-guanidino-butyl]carbamoyl]-3-methyl-butyl]amino]-2-oxo-ethyl]amino]-1-benzyl-2-oxo-ethyl]amino]-1-(hydroxymethyl)-2-oxo-ethyl]carbamoyl]-3-oxo-propyl]amino]-1-(1H-indol-3-ylmethyl)-2-oxo-ethyl]-2-[[(2S)-2,6-diacetamidohexanoyl]amino]butanediamide

> <PUBCHEM_IUPAC_CAS_NAME>
(2S)-N-[(2S)-1-[[(2S)-4-amino-1-[[(2S)-1-[[(2S)-1-[[2-[[(2S)-1-[[(2S)-1-[[(2S)-1-amino-3-(4-hydroxyphenyl)-1-oxopropan-2-yl]amino]-5-(diaminomethylideneamino)-1-oxopentan-2-yl]amino]-4-methyl-1-oxopentan-2-yl]amino]-2-oxoethyl]amino]-1-oxo-3-phenylpropan-2-yl]amino]-3-hydroxy-1-oxopropan-2-yl]amino]-1,4-dioxobutan-2-yl]amino]-3-(1H-indol-3-yl)-1-oxopropan-2-yl]-2-[[(2S)-2,6-diacetamido-1-oxohexyl]amino]butanediamide

> <PUBCHEM_IUPAC_NAME>
(2S)-N-[(2S)-1-[[(2S)-4-amino-1-[[(2S)-1-[[(2S)-1-[[2-[[(2S)-1-[[(2S)-1-[[(2S)-1-amino-3-(4-hydroxyphenyl)-1-oxopropan-2-yl]amino]-5-(diaminomethylideneamino)-1-oxopentan-2-yl]amino]-4-methyl-1-oxopentan-2-yl]amino]-2-oxoethyl]amino]-1-oxo-3-phenylpropan-2-yl]amino]-3-hydroxy-1-oxopropan-2-yl]amino]-1,4-dioxobutan-2-yl]amino]-3-(1H-indol-3-yl)-1-oxopropan-2-yl]-2-[[(2S)-2,6-diacetamidohexanoyl]amino]butanediamide

> <PUBCHEM_IUPAC_SYSTEMATIC_NAME>
(2S)-N-[(2S)-1-[[(2S)-4-azanyl-1-[[(2S)-1-[[(2S)-1-[[2-[[(2S)-1-[[(2S)-1-[[(2S)-1-azanyl-3-(4-hydroxyphenyl)-1-oxidanylidene-propan-2-yl]amino]-5-[bis(azanyl)methylideneamino]-1-oxidanylidene-pentan-2-yl]amino]-4-methyl-1-oxidanylidene-pentan-2-yl]amino]-2-oxidanylidene-ethyl]amino]-1-oxidanylidene-3-phenyl-propan-2-yl]amino]-3-oxidanyl-1-oxidanylidene-propan-2-yl]amino]-1,4-bis(oxidanylidene)butan-2-yl]amino]-3-(1H-indol-3-yl)-1-oxidanylidene-propan-2-yl]-2-[[(2S)-2,6-diacetamidohexanoyl]amino]butanediamide

> <PUBCHEM_IUPAC_TRADITIONAL_NAME>
(2S)-N-[(1S)-2-[[(1S)-3-amino-1-[[(1S)-2-[[(1S)-2-[[2-[[(1S)-1-[[(1S)-1-[[(1S)-2-amino-1-(4-hydroxybenzyl)-2-keto-ethyl]carbamoyl]-4-guanidino-butyl]carbamoyl]-3-methyl-butyl]amino]-2-keto-ethyl]amino]-1-benzyl-2-keto-ethyl]amino]-2-keto-1-methylol-ethyl]carbamoyl]-3-keto-propyl]amino]-1-(1H-indol-3-ylmethyl)-2-keto-ethyl]-2-[[(2S)-2,6-diacetamidohexanoyl]amino]succinamide

> <PUBCHEM_IUPAC_INCHI>
InChI=1S/C64H90N18O16/c1-34(2)25-46(59(94)76-44(18-12-24-71-64(68)69)58(93)77-45(55(67)90)26-38-19-21-40(86)22-20-38)75-54(89)32-73-56(91)47(27-37-13-6-5-7-14-37)78-63(98)51(33-83)82-62(97)50(30-53(66)88)81-60(95)48(28-39-31-72-42-16-9-8-15-41(39)42)79-61(96)49(29-52(65)87)80-57(92)43(74-36(4)85)17-10-11-23-70-35(3)84/h5-9,13-16,19-22,31,34,43-51,72,83,86H,10-12,17-18,23-30,32-33H2,1-4H3,(H2,65,87)(H2,66,88)(H2,67,90)(H,70,84)(H,73,91)(H,74,85)(H,75,89)(H,76,94)(H,77,93)(H,78,98)(H,79,96)(H,80,92)(H,81,95)(H,82,97)(H4,68,69,71)/t43-,44-,45-,46-,47-,48-,49-,50-,51-/m0/s1

> <PUBCHEM_IUPAC_INCHIKEY>
VRTGUDDSVAEHDZ-ZTNWZYIDSA-N

> <PUBCHEM_XLOGP3_AA>
-3.2

> <PUBCHEM_EXACT_MASS>
1366.678

> <PUBCHEM_MOLECULAR_FORMULA>
C64H90N18O16

> <PUBCHEM_MOLECULAR_WEIGHT>
1367.534

> <PUBCHEM_OPENEYE_CAN_SMILES>
CC(C)CC(C(=O)NC(CCCN=C(N)N)C(=O)NC(CC1=CC=C(C=C1)O)C(=O)N)NC(=O)CNC(=O)C(CC2=CC=CC=C2)NC(=O)C(CO)NC(=O)C(CC(=O)N)NC(=O)C(CC3=CNC4=CC=CC=C43)NC(=O)C(CC(=O)N)NC(=O)C(CCCCNC(=O)C)NC(=O)C

> <PUBCHEM_OPENEYE_ISO_SMILES>
CC(C)C[C@@H](C(=O)N[C@@H](CCCN=C(N)N)C(=O)N[C@@H](CC1=CC=C(C=C1)O)C(=O)N)NC(=O)CNC(=O)[C@H](CC2=CC=CC=C2)NC(=O)[C@H](CO)NC(=O)[C@H](CC(=O)N)NC(=O)[C@H](CC3=CNC4=CC=CC=C43)NC(=O)[C@H](CC(=O)N)NC(=O)[C@H](CCCCNC(=O)C)NC(=O)C

> <PUBCHEM_CACTVS_TPSA>
570

> <PUBCHEM_MONOISOTOPIC_WEIGHT>
1366.678

> <PUBCHEM_TOTAL_CHARGE>
0

> <PUBCHEM_HEAVY_ATOM_COUNT>
98

> <PUBCHEM_ATOM_DEF_STEREO_COUNT>
9

> <PUBCHEM_ATOM_UDEF_STEREO_COUNT>
0

> <PUBCHEM_BOND_DEF_STEREO_COUNT>
0

> <PUBCHEM_BOND_UDEF_STEREO_COUNT>
0

> <PUBCHEM_ISOTOPIC_ATOM_COUNT>
0

> <PUBCHEM_COMPONENT_COUNT>
1

> <PUBCHEM_CACTVS_TAUTO_COUNT>
1000

> <PUBCHEM_COORDINATE_TYPE>
1
5
255

> <PUBCHEM_BONDANNOTATIONS>
38  17  5
35  18  5
40  19  5
47  20  6
56  21  6
55  22  6
23  59  8
23  61  8
48  24  5
69  25  6
66  27  5
45  53  8
45  61  8
53  59  8
53  70  8
59  73  8
70  79  8
73  80  8
77  85  8
77  86  8
79  80  8
83  88  8
83  89  8
85  92  8
86  93  8
88  95  8
89  96  8
92  94  8
93  94  8
95  97  8
96  97  8

$$$$
