118737073
  -OEChem-03161706522D

202207  0     1  0  0  0  0  0999 V2000
    9.2311    4.9826    0.0000 F   0  0  0  0  0  0  0  0  0  0  0  0
    5.1350    3.5473    0.0000 O   0  0  0  0  0  0  0  0  0  0  0  0
    8.1957   -0.0370    0.0000 O   0  0  0  0  0  0  0  0  0  0  0  0
    2.5369    3.0473    0.0000 O   0  0  0  0  0  0  0  0  0  0  0  0
    3.4030    4.5473    0.0000 O   0  0  0  0  0  0  0  0  0  0  0  0
    6.1913   -2.0772    0.0000 O   0  0  0  0  0  0  0  0  0  0  0  0
    6.3018    2.3416    0.0000 O   0  0  0  0  0  0  0  0  0  0  0  0
    9.1211    1.0322    0.0000 O   0  0  0  0  0  0  0  0  0  0  0  0
    6.8671    5.5473    0.0000 O   0  0  0  0  0  0  0  0  0  0  0  0
    6.4634    4.4330    0.0000 O   0  0  0  0  0  0  0  0  0  0  0  0
    8.1164    7.4864    0.0000 O   0  0  0  0  0  0  0  0  0  0  0  0
    9.0090   -4.3267    0.0000 O   0  0  0  0  0  0  0  0  0  0  0  0
    6.8695   -7.2289    0.0000 O   0  0  0  0  0  0  0  0  0  0  0  0
   11.1941    5.6081    0.0000 O   0  0  0  0  0  0  0  0  0  0  0  0
    7.7043   -9.7395    0.0000 O   0  0  0  0  0  0  0  0  0  0  0  0
    4.8866   -7.4899    0.0000 O   0  0  0  0  0  0  0  0  0  0  0  0
    4.6605   -5.7727    0.0000 O   0  0  0  0  0  0  0  0  0  0  0  0
    5.1265   12.9691    0.0000 O   0  0  0  0  0  0  0  0  0  0  0  0
    6.8671    1.5473    0.0000 N   0  0  0  0  0  0  0  0  0  0  0  0
    5.1350    2.5473    0.0000 N   0  0  0  0  0  0  0  0  0  0  0  0
    7.5654   -1.0228    0.0000 N   0  0  0  0  0  0  0  0  0  0  0  0
    5.1350    4.5473    0.0000 N   0  0  0  0  0  0  0  0  0  0  0  0
    7.2154    1.6331    0.0000 N   0  0  0  0  0  0  0  0  0  0  0  0
    7.7331    4.0473    0.0000 N   0  0  0  0  0  0  0  0  0  0  0  0
    7.8122    4.8582    0.0000 N   0  0  0  0  0  0  0  0  0  0  0  0
    7.4088   -3.6639    0.0000 N   0  0  0  0  0  0  0  0  0  0  0  0
    9.2866    6.2094    0.0000 N   0  0  0  0  0  0  0  0  0  0  0  0
    8.2436   -6.1745    0.0000 N   0  0  0  0  0  0  0  0  0  0  0  0
    9.0785   -8.6850    0.0000 N   0  0  0  0  0  0  0  0  0  0  0  0
   11.7149    7.2600    0.0000 N   0  0  0  0  0  0  0  0  0  0  0  0
   10.2960  -10.2718    0.0000 N   0  0  0  0  0  0  0  0  0  0  0  0
   10.5303  -12.0933    0.0000 N   0  0  0  0  0  0  0  0  0  0  0  0
   10.0707  -13.6447    0.0000 N   0  0  0  0  0  0  0  0  0  0  0  0
    6.8671    2.5473    0.0000 C   0  0  1  0  0  0  0  0  0  0  0  0
    7.5742    3.2544    0.0000 C   0  0  0  0  0  0  0  0  0  0  0  0
    6.9566   -0.2294    0.0000 C   0  0  1  0  0  0  0  0  0  0  0  0
    5.9907   -0.4882    0.0000 C   0  0  0  0  0  0  0  0  0  0  0  0
    6.0010    3.0473    0.0000 C   0  0  0  0  0  0  0  0  0  0  0  0
    7.8330    2.2885    0.0000 C   0  0  0  0  0  0  0  0  0  0  0  0
    7.4566    0.6366    0.0000 C   0  0  0  0  0  0  0  0  0  0  0  0
    5.2836    0.2189    0.0000 C   0  0  0  0  0  0  0  0  0  0  0  0
    4.2690    3.0473    0.0000 C   0  0  1  0  0  0  0  0  0  0  0  0
    8.5704    3.1672    0.0000 C   0  0  0  0  0  0  0  0  0  0  0  0
    5.5424    1.1848    0.0000 C   0  0  0  0  0  0  0  0  0  0  0  0
    3.4030    2.5473    0.0000 C   0  0  1  0  0  0  0  0  0  0  0  0
    6.5083    0.9260    0.0000 C   0  0  0  0  0  0  0  0  0  0  0  0
    4.2690    4.0473    0.0000 C   0  0  0  0  0  0  0  0  0  0  0  0
    9.1439    3.9864    0.0000 C   0  0  0  0  0  0  0  0  0  0  0  0
    8.9930    2.2609    0.0000 C   0  0  0  0  0  0  0  0  0  0  0  0
    7.7331    3.0473    0.0000 C   0  0  1  0  0  0  0  0  0  0  0  0
    6.0010    4.0473    0.0000 C   0  0  2  0  0  0  0  0  0  0  0  0
    7.1827   -1.9466    0.0000 C   0  0  0  0  0  0  0  0  0  0  0  0
    3.4030    1.5473    0.0000 C   0  0  0  0  0  0  0  0  0  0  0  0
    8.4402    2.3402    0.0000 C   0  0  0  0  0  0  0  0  0  0  0  0
    7.5957    5.8345    0.0000 C   0  0  1  0  0  0  0  0  0  0  0  0
    8.1814    1.3743    0.0000 C   0  0  0  0  0  0  0  0  0  0  0  0
    6.8671    4.5473    0.0000 C   0  0  0  0  0  0  0  0  0  0  0  0
    7.7915   -2.7400    0.0000 C   0  0  0  0  0  0  0  0  0  0  0  0
    7.3504    3.9712    0.0000 C   0  0  0  0  0  0  0  0  0  0  0  0
   10.1401    3.8992    0.0000 C   0  0  0  0  0  0  0  0  0  0  0  0
    9.9892    2.1738    0.0000 C   0  0  0  0  0  0  0  0  0  0  0  0
    6.6439    3.2813    0.0000 C   0  0  0  0  0  0  0  0  0  0  0  0
    6.6419    6.1351    0.0000 C   0  0  0  0  0  0  0  0  0  0  0  0
    7.6349   -5.3811    0.0000 C   0  0  2  0  0  0  0  0  0  0  0  0
   10.5628    2.9929    0.0000 C   0  0  0  0  0  0  0  0  0  0  0  0
    8.4697   -7.8917    0.0000 C   0  0  0  0  0  0  0  0  0  0  0  0
   10.0239    6.8851    0.0000 C   0  0  1  0  0  0  0  0  0  0  0  0
    8.3329    6.5101    0.0000 C   0  0  0  0  0  0  0  0  0  0  0  0
    9.8074    7.8614    0.0000 C   0  0  0  0  0  0  0  0  0  0  0  0
    8.0176   -4.4572    0.0000 C   0  0  0  0  0  0  0  0  0  0  0  0
    6.6434   -5.5116    0.0000 C   0  0  0  0  0  0  0  0  0  0  0  0
    6.4254    7.1114    0.0000 C   0  0  0  0  0  0  0  0  0  0  0  0
   10.5446    8.5370    0.0000 C   0  0  0  0  0  0  0  0  0  0  0  0
    7.8609   -7.0983    0.0000 C   0  0  0  0  0  0  0  0  0  0  0  0
    7.6764   -8.5005    0.0000 C   0  0  0  0  0  0  0  0  0  0  0  0
    9.2631   -7.2829    0.0000 C   0  0  0  0  0  0  0  0  0  0  0  0
   10.3281    9.5133    0.0000 C   0  0  0  0  0  0  0  0  0  0  0  0
    6.2607   -6.4355    0.0000 C   0  0  0  0  0  0  0  0  0  0  0  0
   10.9776    6.5844    0.0000 C   0  0  0  0  0  0  0  0  0  0  0  0
    5.4717    7.4121    0.0000 C   0  0  0  0  0  0  0  0  0  0  0  0
    7.1627    7.7870    0.0000 C   0  0  0  0  0  0  0  0  0  0  0  0
    8.6958   -9.6089    0.0000 C   0  0  0  0  0  0  0  0  0  0  0  0
    9.3045  -10.4023    0.0000 C   0  0  2  0  0  0  0  0  0  0  0  0
    5.9924    9.0640    0.0000 C   0  0  0  0  0  0  0  0  0  0  0  0
   11.0654   10.1889    0.0000 C   0  0  0  0  0  0  0  0  0  0  0  0
    5.2552    8.3884    0.0000 C   0  0  0  0  0  0  0  0  0  0  0  0
    6.9462    8.7633    0.0000 C   0  0  0  0  0  0  0  0  0  0  0  0
    8.9219  -11.3262    0.0000 C   0  0  0  0  0  0  0  0  0  0  0  0
    5.7760   10.0403    0.0000 C   0  0  0  0  0  0  0  0  0  0  0  0
    5.2693   -6.5660    0.0000 C   0  0  0  0  0  0  0  0  0  0  0  0
    4.8222   10.3409    0.0000 C   0  0  0  0  0  0  0  0  0  0  0  0
   10.8489   11.1652    0.0000 C   0  0  0  0  0  0  0  0  0  0  0  0
   12.0191    9.8882    0.0000 C   0  0  0  0  0  0  0  0  0  0  0  0
    9.5306  -12.1195    0.0000 C   0  0  0  0  0  0  0  0  0  0  0  0
    6.5132   10.7159    0.0000 C   0  0  0  0  0  0  0  0  0  0  0  0
    4.0850    9.6653    0.0000 C   0  0  0  0  0  0  0  0  0  0  0  0
    4.6057   11.3172    0.0000 C   0  0  0  0  0  0  0  0  0  0  0  0
   11.5861   11.8408    0.0000 C   0  0  0  0  0  0  0  0  0  0  0  0
   12.7564   10.5639    0.0000 C   0  0  0  0  0  0  0  0  0  0  0  0
    6.2967   11.6922    0.0000 C   0  0  0  0  0  0  0  0  0  0  0  0
    5.3430   11.9928    0.0000 C   0  0  0  0  0  0  0  0  0  0  0  0
   12.5399   11.5402    0.0000 C   0  0  0  0  0  0  0  0  0  0  0  0
    9.2466  -13.0783    0.0000 C   0  0  0  0  0  0  0  0  0  0  0  0
    3.1312    9.9659    0.0000 C   0  0  0  0  0  0  0  0  0  0  0  0
   10.8641  -13.0360    0.0000 C   0  0  0  0  0  0  0  0  0  0  0  0
    5.8637   13.6447    0.0000 C   0  0  0  0  0  0  0  0  0  0  0  0
    7.7692    3.8429    0.0000 H   0  0  0  0  0  0  0  0  0  0  0  0
    7.0465    3.5799    0.0000 H   0  0  0  0  0  0  0  0  0  0  0  0
    7.5753   -0.1889    0.0000 H   0  0  0  0  0  0  0  0  0  0  0  0
    6.2541    1.4544    0.0000 H   0  0  0  0  0  0  0  0  0  0  0  0
    5.4828   -0.8438    0.0000 H   0  0  0  0  0  0  0  0  0  0  0  0
    6.2527   -1.0501    0.0000 H   0  0  0  0  0  0  0  0  0  0  0  0
    7.6725    1.6896    0.0000 H   0  0  0  0  0  0  0  0  0  0  0  0
    8.4319    2.1280    0.0000 H   0  0  0  0  0  0  0  0  0  0  0  0
    7.9935    2.8874    0.0000 H   0  0  0  0  0  0  0  0  0  0  0  0
    4.7217    0.4809    0.0000 H   0  0  0  0  0  0  0  0  0  0  0  0
    4.9280   -0.2890    0.0000 H   0  0  0  0  0  0  0  0  0  0  0  0
    4.2690    2.1973    0.0000 H   0  0  0  0  0  0  0  0  0  0  0  0
    5.1350    1.9273    0.0000 H   0  0  0  0  0  0  0  0  0  0  0  0
    5.7029    1.7837    0.0000 H   0  0  0  0  0  0  0  0  0  0  0  0
    4.9435    1.3453    0.0000 H   0  0  0  0  0  0  0  0  0  0  0  0
    3.4030    3.1673    0.0000 H   0  0  0  0  0  0  0  0  0  0  0  0
    8.1801   -0.9418    0.0000 H   0  0  0  0  0  0  0  0  0  0  0  0
    6.2463    0.3641    0.0000 H   0  0  0  0  0  0  0  0  0  0  0  0
    7.0162    0.5704    0.0000 H   0  0  0  0  0  0  0  0  0  0  0  0
    8.6374    1.7531    0.0000 H   0  0  0  0  0  0  0  0  0  0  0  0
    7.6122    3.6554    0.0000 H   0  0  0  0  0  0  0  0  0  0  0  0
    5.6025    3.5723    0.0000 H   0  0  0  0  0  0  0  0  0  0  0  0
    5.1350    5.1673    0.0000 H   0  0  0  0  0  0  0  0  0  0  0  0
    2.7830    1.5473    0.0000 H   0  0  0  0  0  0  0  0  0  0  0  0
    3.4030    0.9273    0.0000 H   0  0  0  0  0  0  0  0  0  0  0  0
    4.0230    1.5473    0.0000 H   0  0  0  0  0  0  0  0  0  0  0  0
    9.0021    2.0782    0.0000 H   0  0  0  0  0  0  0  0  0  0  0  0
    8.7958    2.8481    0.0000 H   0  0  0  0  0  0  0  0  0  0  0  0
    7.2695    2.2507    0.0000 H   0  0  0  0  0  0  0  0  0  0  0  0
    8.1870    5.6481    0.0000 H   0  0  0  0  0  0  0  0  0  0  0  0
    8.2700    4.3573    0.0000 H   0  0  0  0  0  0  0  0  0  0  0  0
    8.3144   -3.0731    0.0000 H   0  0  0  0  0  0  0  0  0  0  0  0
    8.2103   -2.2829    0.0000 H   0  0  0  0  0  0  0  0  0  0  0  0
   10.4958    4.4071    0.0000 H   0  0  0  0  0  0  0  0  0  0  0  0
   10.2512    1.6119    0.0000 H   0  0  0  0  0  0  0  0  0  0  0  0
    7.1808    2.9713    0.0000 H   0  0  0  0  0  0  0  0  0  0  0  0
    7.0424    3.7563    0.0000 H   0  0  0  0  0  0  0  0  0  0  0  0
    8.3350    5.1914    0.0000 H   0  0  0  0  0  0  0  0  0  0  0  0
    2.0000    2.7373    0.0000 H   0  0  0  0  0  0  0  0  0  0  0  0
    6.0225    6.1080    0.0000 H   0  0  0  0  0  0  0  0  0  0  0  0
    6.5610    5.5204    0.0000 H   0  0  0  0  0  0  0  0  0  0  0  0
    7.3976   -5.9539    0.0000 H   0  0  0  0  0  0  0  0  0  0  0  0
   11.1804    2.9389    0.0000 H   0  0  0  0  0  0  0  0  0  0  0  0
   10.1581    6.2798    0.0000 H   0  0  0  0  0  0  0  0  0  0  0  0
    6.7941   -3.7448    0.0000 H   0  0  0  0  0  0  0  0  0  0  0  0
    9.4742    8.3842    0.0000 H   0  0  0  0  0  0  0  0  0  0  0  0
    9.2346    7.6241    0.0000 H   0  0  0  0  0  0  0  0  0  0  0  0
    6.6705   -4.8922    0.0000 H   0  0  0  0  0  0  0  0  0  0  0  0
    6.0381   -5.3774    0.0000 H   0  0  0  0  0  0  0  0  0  0  0  0
    9.4209    5.6042    0.0000 H   0  0  0  0  0  0  0  0  0  0  0  0
    8.8583   -6.0935    0.0000 H   0  0  0  0  0  0  0  0  0  0  0  0
   10.8778    8.0141    0.0000 H   0  0  0  0  0  0  0  0  0  0  0  0
   11.1174    8.7743    0.0000 H   0  0  0  0  0  0  0  0  0  0  0  0
    9.6932   -8.6041    0.0000 H   0  0  0  0  0  0  0  0  0  0  0  0
    7.2989   -8.0086    0.0000 H   0  0  0  0  0  0  0  0  0  0  0  0
    7.1845   -8.8779    0.0000 H   0  0  0  0  0  0  0  0  0  0  0  0
    8.0538   -8.9923    0.0000 H   0  0  0  0  0  0  0  0  0  0  0  0
    9.6405   -7.7748    0.0000 H   0  0  0  0  0  0  0  0  0  0  0  0
    9.7549   -6.9055    0.0000 H   0  0  0  0  0  0  0  0  0  0  0  0
    8.8856   -6.7911    0.0000 H   0  0  0  0  0  0  0  0  0  0  0  0
    9.9950   10.0362    0.0000 H   0  0  0  0  0  0  0  0  0  0  0  0
    9.7553    9.2760    0.0000 H   0  0  0  0  0  0  0  0  0  0  0  0
    6.2337   -7.0549    0.0000 H   0  0  0  0  0  0  0  0  0  0  0  0
    6.8660   -6.5697    0.0000 H   0  0  0  0  0  0  0  0  0  0  0  0
    5.0146    6.9932    0.0000 H   0  0  0  0  0  0  0  0  0  0  0  0
    7.7540    7.6006    0.0000 H   0  0  0  0  0  0  0  0  0  0  0  0
    5.6912    2.2339    0.0000 H   0  0  0  0  0  0  0  0  0  0  0  0
    9.5418   -9.8295    0.0000 H   0  0  0  0  0  0  0  0  0  0  0  0
    4.6639    8.5748    0.0000 H   0  0  0  0  0  0  0  0  0  0  0  0
    7.4033    9.1822    0.0000 H   0  0  0  0  0  0  0  0  0  0  0  0
    8.3990  -10.9930    0.0000 H   0  0  0  0  0  0  0  0  0  0  0  0
    8.5030  -11.7833    0.0000 H   0  0  0  0  0  0  0  0  0  0  0  0
   12.3062    7.0736    0.0000 H   0  0  0  0  0  0  0  0  0  0  0  0
   11.5806    7.8654    0.0000 H   0  0  0  0  0  0  0  0  0  0  0  0
   10.2576   11.3516    0.0000 H   0  0  0  0  0  0  0  0  0  0  0  0
   12.1533    9.2830    0.0000 H   0  0  0  0  0  0  0  0  0  0  0  0
   10.6734  -10.7636    0.0000 H   0  0  0  0  0  0  0  0  0  0  0  0
   10.5333   -9.6990    0.0000 H   0  0  0  0  0  0  0  0  0  0  0  0
    7.1045   10.5295    0.0000 H   0  0  0  0  0  0  0  0  0  0  0  0
    3.7987    9.1153    0.0000 H   0  0  0  0  0  0  0  0  0  0  0  0
    4.5769    9.2879    0.0000 H   0  0  0  0  0  0  0  0  0  0  0  0
    4.0144   11.5036    0.0000 H   0  0  0  0  0  0  0  0  0  0  0  0
   11.4519   12.4461    0.0000 H   0  0  0  0  0  0  0  0  0  0  0  0
   13.3477   10.3775    0.0000 H   0  0  0  0  0  0  0  0  0  0  0  0
    6.7538   12.1111    0.0000 H   0  0  0  0  0  0  0  0  0  0  0  0
   10.8815  -11.5824    0.0000 H   0  0  0  0  0  0  0  0  0  0  0  0
   12.9969   11.9591    0.0000 H   0  0  0  0  0  0  0  0  0  0  0  0
    8.6622  -13.2853    0.0000 H   0  0  0  0  0  0  0  0  0  0  0  0
    4.2719   -7.5708    0.0000 H   0  0  0  0  0  0  0  0  0  0  0  0
    3.3177   10.5573    0.0000 H   0  0  0  0  0  0  0  0  0  0  0  0
    2.5399   10.1523    0.0000 H   0  0  0  0  0  0  0  0  0  0  0  0
    2.9449    9.3746    0.0000 H   0  0  0  0  0  0  0  0  0  0  0  0
   11.4586  -13.2121    0.0000 H   0  0  0  0  0  0  0  0  0  0  0  0
    6.2826   13.1877    0.0000 H   0  0  0  0  0  0  0  0  0  0  0  0
    6.3208   14.0636    0.0000 H   0  0  0  0  0  0  0  0  0  0  0  0
    5.4448   14.1018    0.0000 H   0  0  0  0  0  0  0  0  0  0  0  0
  1 48  1  0  0  0  0
  2 38  2  0  0  0  0
  3 40  2  0  0  0  0
 45  4  1  1  0  0  0
  4145  1  0  0  0  0
  5 47  2  0  0  0  0
  6 52  2  0  0  0  0
  7 62  1  0  0  0  0
  7173  1  0  0  0  0
  8 56  2  0  0  0  0
  9 57  2  0  0  0  0
 10 59  2  0  0  0  0
 11 68  2  0  0  0  0
 12 70  2  0  0  0  0
 13 74  2  0  0  0  0
 14 79  2  0  0  0  0
 15 82  2  0  0  0  0
 16 90  1  0  0  0  0
 16195  1  0  0  0  0
 17 90  2  0  0  0  0
 18101  1  0  0  0  0
 18106  1  0  0  0  0
 19 34  1  0  0  0  0
 19 40  1  0  0  0  0
 19110  1  0  0  0  0
 20 38  1  0  0  0  0
 20 42  1  0  0  0  0
 20119  1  0  0  0  0
 36 21  1  1  0  0  0
 21 52  1  0  0  0  0
 21123  1  0  0  0  0
 22 47  1  0  0  0  0
 22 51  1  0  0  0  0
 22129  1  0  0  0  0
 23 46  1  0  0  0  0
 23 56  1  0  0  0  0
 23135  1  0  0  0  0
 24 50  1  0  0  0  0
 24 57  1  0  0  0  0
 24137  1  0  0  0  0
 55 25  1  1  0  0  0
 25 59  1  0  0  0  0
 25144  1  0  0  0  0
 26 58  1  0  0  0  0
 26 70  1  0  0  0  0
 26151  1  0  0  0  0
 67 27  1  1  0  0  0
 27 68  1  0  0  0  0
 27156  1  0  0  0  0
 64 28  1  1  0  0  0
 28 74  1  0  0  0  0
 28157  1  0  0  0  0
 29 66  1  0  0  0  0
 29 82  1  0  0  0  0
 29160  1  0  0  0  0
 30 79  1  0  0  0  0
 30179  1  0  0  0  0
 30180  1  0  0  0  0
 83 31  1  1  0  0  0
 31183  1  0  0  0  0
 31184  1  0  0  0  0
 32 94  1  0  0  0  0
 32105  1  0  0  0  0
 32192  1  0  0  0  0
 33103  1  0  0  0  0
 33105  2  0  0  0  0
 34 35  1  0  0  0  0
 34 38  1  0  0  0  0
 34 39  1  1  0  0  0
 35 43  1  0  0  0  0
 35107  1  0  0  0  0
 35108  1  0  0  0  0
 36 37  1  0  0  0  0
 36 40  1  0  0  0  0
 36109  1  0  0  0  0
 37 41  1  0  0  0  0
 37111  1  0  0  0  0
 37112  1  0  0  0  0
 39113  1  0  0  0  0
 39114  1  0  0  0  0
 39115  1  0  0  0  0
 41 44  1  0  0  0  0
 41116  1  0  0  0  0
 41117  1  0  0  0  0
 42 45  1  0  0  0  0
 42 47  1  0  0  0  0
 42118  1  6  0  0  0
 43 48  1  0  0  0  0
 43 49  2  0  0  0  0
 44 46  1  0  0  0  0
 44120  1  0  0  0  0
 44121  1  0  0  0  0
 45 53  1  0  0  0  0
 45122  1  0  0  0  0
 46124  1  0  0  0  0
 46125  1  0  0  0  0
 48 60  2  0  0  0  0
 49 61  1  0  0  0  0
 49126  1  0  0  0  0
 50 54  1  0  0  0  0
 50 59  1  1  0  0  0
 50127  1  0  0  0  0
 51 57  1  0  0  0  0
 51 62  1  6  0  0  0
 51128  1  0  0  0  0
 52 58  1  0  0  0  0
 53130  1  0  0  0  0
 53131  1  0  0  0  0
 53132  1  0  0  0  0
 54 56  1  0  0  0  0
 54133  1  0  0  0  0
 54134  1  0  0  0  0
 55 63  1  0  0  0  0
 55 68  1  0  0  0  0
 55136  1  0  0  0  0
 58138  1  0  0  0  0
 58139  1  0  0  0  0
 60 65  1  0  0  0  0
 60140  1  0  0  0  0
 61 65  2  0  0  0  0
 61141  1  0  0  0  0
 62142  1  0  0  0  0
 62143  1  0  0  0  0
 63 72  1  0  0  0  0
 63146  1  0  0  0  0
 63147  1  0  0  0  0
 64 70  1  0  0  0  0
 64 71  1  0  0  0  0
 64148  1  0  0  0  0
 65149  1  0  0  0  0
 66 74  1  0  0  0  0
 66 75  1  0  0  0  0
 66 76  1  0  0  0  0
 67 69  1  0  0  0  0
 67 79  1  0  0  0  0
 67150  1  0  0  0  0
 69 73  1  0  0  0  0
 69152  1  0  0  0  0
 69153  1  0  0  0  0
 71 78  1  0  0  0  0
 71154  1  0  0  0  0
 71155  1  0  0  0  0
 72 80  2  0  0  0  0
 72 81  1  0  0  0  0
 73 77  1  0  0  0  0
 73158  1  0  0  0  0
 73159  1  0  0  0  0
 75161  1  0  0  0  0
 75162  1  0  0  0  0
 75163  1  0  0  0  0
 76164  1  0  0  0  0
 76165  1  0  0  0  0
 76166  1  0  0  0  0
 77 85  1  0  0  0  0
 77167  1  0  0  0  0
 77168  1  0  0  0  0
 78 90  1  0  0  0  0
 78169  1  0  0  0  0
 78170  1  0  0  0  0
 80 86  1  0  0  0  0
 80171  1  0  0  0  0
 81 87  2  0  0  0  0
 81172  1  0  0  0  0
 82 83  1  0  0  0  0
 83 88  1  0  0  0  0
 83174  1  0  0  0  0
 84 86  2  0  0  0  0
 84 87  1  0  0  0  0
 84 89  1  0  0  0  0
 85 92  2  0  0  0  0
 85 93  1  0  0  0  0
 86175  1  0  0  0  0
 87176  1  0  0  0  0
 88 94  1  0  0  0  0
 88177  1  0  0  0  0
 88178  1  0  0  0  0
 89 91  2  0  0  0  0
 89 95  1  0  0  0  0
 91 96  1  0  0  0  0
 91 97  1  0  0  0  0
 92 98  1  0  0  0  0
 92181  1  0  0  0  0
 93 99  2  0  0  0  0
 93182  1  0  0  0  0
 94103  2  0  0  0  0
 95100  2  0  0  0  0
 95185  1  0  0  0  0
 96104  1  0  0  0  0
 96186  1  0  0  0  0
 96187  1  0  0  0  0
 97101  2  0  0  0  0
 97188  1  0  0  0  0
 98102  2  0  0  0  0
 98189  1  0  0  0  0
 99102  1  0  0  0  0
 99190  1  0  0  0  0
100101  1  0  0  0  0
100191  1  0  0  0  0
102193  1  0  0  0  0
103194  1  0  0  0  0
104196  1  0  0  0  0
104197  1  0  0  0  0
104198  1  0  0  0  0
105199  1  0  0  0  0
106200  1  0  0  0  0
106201  1  0  0  0  0
106202  1  0  0  0  0
M  END
> <PUBCHEM_COMPOUND_CID>
118737073

> <PUBCHEM_COMPOUND_CANONICALIZED>
1

> <PUBCHEM_CACTVS_COMPLEXITY>
2980

> <PUBCHEM_CACTVS_HBOND_ACCEPTOR>
20

> <PUBCHEM_CACTVS_HBOND_DONOR>
17

> <PUBCHEM_CACTVS_ROTATABLE_BOND>
31

> <PUBCHEM_CACTVS_SUBSKEYS>
AAADcfB//wAAAAAAAAAAAAAAAAAAAWAAAAAwYMGAAAAAAAAB1AAAHwAQCAAADLzhng4/npbJlgCoAzX3fAACiC2xMqAJ2YG+eIiOfj7E+TuUcCAu9hPY6Ce93/KO4AABAAAQAADAAAIAACAAAAAAAAAAAA==

> <PUBCHEM_IUPAC_OPENEYE_NAME>
(4S)-4-[[2-[[(2S)-2-amino-3-(1H-imidazol-5-yl)propanoyl]amino]-2-methyl-propanoyl]amino]-5-[[2-[[(2S,5S,8S,11S,19S)-11-[[(1S)-2-[[(1S)-1-carbamoyl-4-phenyl-butyl]amino]-1-[[4-(2-ethyl-4-methoxy-phenyl)phenyl]methyl]-2-oxo-ethyl]carbamoyl]-2-[(2-fluorophenyl)methyl]-5-[(1R)-1-hydroxyethyl]-8-(hydroxymethyl)-2-methyl-3,6,9,13,20-pentaoxo-1,4,7,10,14-pentazacycloicos-19-yl]amino]-2-oxo-ethyl]amino]-5-oxo-pentanoic acid

> <PUBCHEM_IUPAC_CAS_NAME>
(4S)-4-[[2-[[(2S)-2-amino-3-(1H-imidazol-5-yl)-1-oxopropyl]amino]-2-methyl-1-oxopropyl]amino]-5-[[2-[[(2S,5S,8S,11S,19S)-11-[[[(2S)-1-[[(2S)-1-amino-1-oxo-5-phenylpentan-2-yl]amino]-3-[4-(2-ethyl-4-methoxyphenyl)phenyl]-1-oxopropan-2-yl]amino]-oxomethyl]-2-[(2-fluorophenyl)methyl]-5-[(1R)-1-hydroxyethyl]-8-(hydroxymethyl)-2-methyl-3,6,9,13,20-pentaoxo-1,4,7,10,14-pentazacycloeicos-19-yl]amino]-2-oxoethyl]amino]-5-oxopentanoic acid

> <PUBCHEM_IUPAC_NAME>
(4S)-4-[[2-[[(2S)-2-amino-3-(1H-imidazol-5-yl)propanoyl]amino]-2-methylpropanoyl]amino]-5-[[2-[[(2S,5S,8S,11S,19S)-11-[[(2S)-1-[[(2S)-1-amino-1-oxo-5-phenylpentan-2-yl]amino]-3-[4-(2-ethyl-4-methoxyphenyl)phenyl]-1-oxopropan-2-yl]carbamoyl]-2-[(2-fluorophenyl)methyl]-5-[(1R)-1-hydroxyethyl]-8-(hydroxymethyl)-2-methyl-3,6,9,13,20-pentaoxo-1,4,7,10,14-pentazacycloicos-19-yl]amino]-2-oxoethyl]amino]-5-oxopentanoic acid

> <PUBCHEM_IUPAC_SYSTEMATIC_NAME>
(4S)-4-[[2-[[(2S)-2-azanyl-3-(1H-imidazol-5-yl)propanoyl]amino]-2-methyl-propanoyl]amino]-5-[[2-[[(2S,5S,8S,11S,19S)-11-[[(2S)-1-[[(2S)-1-azanyl-1-oxidanylidene-5-phenyl-pentan-2-yl]amino]-3-[4-(2-ethyl-4-methoxy-phenyl)phenyl]-1-oxidanylidene-propan-2-yl]carbamoyl]-2-[(2-fluorophenyl)methyl]-8-(hydroxymethyl)-2-methyl-5-[(1R)-1-oxidanylethyl]-3,6,9,13,20-pentakis(oxidanylidene)-1,4,7,10,14-pentazacycloicos-19-yl]amino]-2-oxidanylidene-ethyl]amino]-5-oxidanylidene-pentanoic acid

> <PUBCHEM_IUPAC_TRADITIONAL_NAME>
(4S)-4-[[2-[[(2S)-2-amino-3-(1H-imidazol-5-yl)propanoyl]amino]-2-methyl-propanoyl]amino]-5-[[2-[[(2S,5S,8S,11S,19S)-11-[[(1S)-2-[[(1S)-1-carbamoyl-4-phenyl-butyl]amino]-1-[4-(2-ethyl-4-methoxy-phenyl)benzyl]-2-keto-ethyl]carbamoyl]-2-(2-fluorobenzyl)-5-[(1R)-1-hydroxyethyl]-3,6,9,13,20-pentaketo-2-methyl-8-methylol-1,4,7,10,14-pentazacycloeicos-19-yl]amino]-2-keto-ethyl]amino]-5-keto-valeric acid

> <PUBCHEM_IUPAC_INCHI>
InChI=1S/C73H96FN15O17/c1-7-44-33-48(106-6)27-28-49(44)45-25-23-43(24-26-45)32-55(65(99)82-52(62(76)96)22-15-18-42-16-9-8-10-17-42)83-66(100)56-35-58(92)78-31-14-13-21-53(68(102)89-73(5,36-46-19-11-12-20-50(46)74)71(105)87-61(41(2)91)69(103)85-57(39-90)67(101)84-56)81-59(93)38-79-64(98)54(29-30-60(94)95)86-70(104)72(3,4)88-63(97)51(75)34-47-37-77-40-80-47/h8-12,16-17,19-20,23-28,33,37,40-41,51-57,61,90-91H,7,13-15,18,21-22,29-32,34-36,38-39,75H2,1-6H3,(H2,76,96)(H,77,80)(H,78,92)(H,79,98)(H,81,93)(H,82,99)(H,83,100)(H,84,101)(H,85,103)(H,86,104)(H,87,105)(H,88,97)(H,89,102)(H,94,95)/t41-,51+,52+,53+,54+,55+,56+,57+,61+,73+/m1/s1

> <PUBCHEM_IUPAC_INCHIKEY>
MXXAKDHPADLINM-LZDGYXANSA-N

> <PUBCHEM_XLOGP3_AA>
-0.2

> <PUBCHEM_EXACT_MASS>
1473.709

> <PUBCHEM_MOLECULAR_FORMULA>
C73H96FN15O17

> <PUBCHEM_MOLECULAR_WEIGHT>
1474.657

> <PUBCHEM_OPENEYE_CAN_SMILES>
CCC1=C(C=CC(=C1)OC)C2=CC=C(C=C2)CC(C(=O)NC(CCCC3=CC=CC=C3)C(=O)N)NC(=O)C4CC(=O)NCCCCC(C(=O)NC(C(=O)NC(C(=O)NC(C(=O)N4)CO)C(C)O)(C)CC5=CC=CC=C5F)NC(=O)CNC(=O)C(CCC(=O)O)NC(=O)C(C)(C)NC(=O)C(CC6=CN=CN6)N

> <PUBCHEM_OPENEYE_ISO_SMILES>
CCC1=C(C=CC(=C1)OC)C2=CC=C(C=C2)C[C@@H](C(=O)N[C@@H](CCCC3=CC=CC=C3)C(=O)N)NC(=O)[C@@H]4CC(=O)NCCCC[C@@H](C(=O)N[C@@](C(=O)N[C@H](C(=O)N[C@H](C(=O)N4)CO)[C@@H](C)O)(C)CC5=CC=CC=C5F)NC(=O)CNC(=O)[C@H](CCC(=O)O)NC(=O)C(C)(C)NC(=O)[C@H](CC6=CN=CN6)N

> <PUBCHEM_CACTVS_TPSA>
505

> <PUBCHEM_MONOISOTOPIC_WEIGHT>
1473.709

> <PUBCHEM_TOTAL_CHARGE>
0

> <PUBCHEM_HEAVY_ATOM_COUNT>
106

> <PUBCHEM_ATOM_DEF_STEREO_COUNT>
10

> <PUBCHEM_ATOM_UDEF_STEREO_COUNT>
0

> <PUBCHEM_BOND_DEF_STEREO_COUNT>
0

> <PUBCHEM_BOND_UDEF_STEREO_COUNT>
0

> <PUBCHEM_ISOTOPIC_ATOM_COUNT>
0

> <PUBCHEM_COMPONENT_COUNT>
1

> <PUBCHEM_CACTVS_TAUTO_COUNT>
998

> <PUBCHEM_COORDINATE_TYPE>
1
5
255

> <PUBCHEM_BONDANNOTATIONS>
100  101  8
36  21  5
55  25  5
67  27  5
64  28  5
83  31  5
32  105  8
32  94  8
33  103  8
33  105  8
34  39  5
45  4  5
42  118  6
43  48  8
43  49  8
48  60  8
49  61  8
50  59  5
51  62  6
60  65  8
61  65  8
72  80  8
72  81  8
80  86  8
81  87  8
84  86  8
84  87  8
85  92  8
85  93  8
89  91  8
89  95  8
91  97  8
92  98  8
93  99  8
94  103  8
95  100  8
97  101  8
98  102  8
99  102  8

$$$$
