118737075
  -OEChem-03161706532D

208213  0     1  0  0  0  0  0999 V2000
    4.7190   -5.2536    0.0000 F   0  0  0  0  0  0  0  0  0  0  0  0
    2.9526   -1.9689    0.0000 O   0  0  0  0  0  0  0  0  0  0  0  0
    6.5355   -3.2953    0.0000 O   0  0  0  0  0  0  0  0  0  0  0  0
    6.4310   -0.8877    0.0000 O   0  0  0  0  0  0  0  0  0  0  0  0
    3.9374    1.2047    0.0000 O   0  0  0  0  0  0  0  0  0  0  0  0
    7.4015    4.2047    0.0000 O   0  0  0  0  0  0  0  0  0  0  0  0
    7.4015   -3.7953    0.0000 O   0  0  0  0  0  0  0  0  0  0  0  0
    8.2675    0.7047    0.0000 O   0  0  0  0  0  0  0  0  0  0  0  0
    7.4752    0.0467    0.0000 O   0  0  0  0  0  0  0  0  0  0  0  0
   11.7316    0.7047    0.0000 O   0  0  0  0  0  0  0  0  0  0  0  0
    9.9996    6.7047    0.0000 O   0  0  0  0  0  0  0  0  0  0  0  0
   10.8656   -4.7953    0.0000 O   0  0  0  0  0  0  0  0  0  0  0  0
    9.9996   -8.2953    0.0000 O   0  0  0  0  0  0  0  0  0  0  0  0
   12.5977    4.2047    0.0000 O   0  0  0  0  0  0  0  0  0  0  0  0
   11.7316  -10.2953    0.0000 O   0  0  0  0  0  0  0  0  0  0  0  0
    8.2675   -9.2953    0.0000 O   0  0  0  0  0  0  0  0  0  0  0  0
    7.4015   -7.7953    0.0000 O   0  0  0  0  0  0  0  0  0  0  0  0
    8.2675   12.7047    0.0000 O   0  0  0  0  0  0  0  0  0  0  0  0
    5.6695   -1.7953    0.0000 N   0  0  0  0  0  0  0  0  0  0  0  0
    3.9374   -0.7953    0.0000 N   0  0  0  0  0  0  0  0  0  0  0  0
    8.2675   -2.2953    0.0000 N   0  0  0  0  0  0  0  0  0  0  0  0
    5.6695    1.2047    0.0000 N   0  0  0  0  0  0  0  0  0  0  0  0
    7.4015    2.2047    0.0000 N   0  0  0  0  0  0  0  0  0  0  0  0
    9.9996    0.7047    0.0000 N   0  0  0  0  0  0  0  0  0  0  0  0
    9.1336    4.2047    0.0000 N   0  0  0  0  0  0  0  0  0  0  0  0
   10.8656    5.2047    0.0000 N   0  0  0  0  0  0  0  0  0  0  0  0
    9.1336   -4.7953    0.0000 N   0  0  0  0  0  0  0  0  0  0  0  0
   10.8656   -6.7953    0.0000 N   0  0  0  0  0  0  0  0  0  0  0  0
   12.5977   -8.7953    0.0000 N   0  0  0  0  0  0  0  0  0  0  0  0
   13.4637    5.7047    0.0000 N   0  0  0  0  0  0  0  0  0  0  0  0
   14.3297   -9.7953    0.0000 N   0  0  0  0  0  0  0  0  0  0  0  0
   14.4342  -12.7898    0.0000 N   0  0  0  0  0  0  0  0  0  0  0  0
   15.9124  -12.1317    0.0000 N   0  0  0  0  0  0  0  0  0  0  0  0
    4.8034   -2.2953    0.0000 C   0  0  1  0  0  0  0  0  0  0  0  0
    4.5446   -3.2612    0.0000 C   0  0  0  0  0  0  0  0  0  0  0  0
    7.4015   -1.7953    0.0000 C   0  0  1  0  0  0  0  0  0  0  0  0
    7.4015   -0.7953    0.0000 C   0  0  0  0  0  0  0  0  0  0  0  0
    3.9374   -1.7953    0.0000 C   0  0  0  0  0  0  0  0  0  0  0  0
    5.3770   -3.1145    0.0000 C   0  0  0  0  0  0  0  0  0  0  0  0
    6.5355   -2.2953    0.0000 C   0  0  0  0  0  0  0  0  0  0  0  0
    8.2675   -0.2953    0.0000 C   0  0  0  0  0  0  0  0  0  0  0  0
    4.8034   -0.2953    0.0000 C   0  0  1  0  0  0  0  0  0  0  0  0
    3.7254   -3.8348    0.0000 C   0  0  0  0  0  0  0  0  0  0  0  0
    9.1336   -0.7953    0.0000 C   0  0  0  0  0  0  0  0  0  0  0  0
    5.7882   -0.1217    0.0000 C   0  0  1  0  0  0  0  0  0  0  0  0
    8.2675    2.7047    0.0000 C   0  0  1  0  0  0  0  0  0  0  0  0
    9.1336    2.2047    0.0000 C   0  0  0  0  0  0  0  0  0  0  0  0
    9.9996   -0.2953    0.0000 C   0  0  0  0  0  0  0  0  0  0  0  0
    4.8034    0.7047    0.0000 C   0  0  0  0  0  0  0  0  0  0  0  0
    9.9996    2.7047    0.0000 C   0  0  0  0  0  0  0  0  0  0  0  0
    6.5355    0.7047    0.0000 C   0  0  2  0  0  0  0  0  0  0  0  0
    3.8126   -4.8310    0.0000 C   0  0  0  0  0  0  0  0  0  0  0  0
    2.8192   -3.4122    0.0000 C   0  0  0  0  0  0  0  0  0  0  0  0
   10.8656    2.2047    0.0000 C   0  0  0  0  0  0  0  0  0  0  0  0
    9.1336    5.2047    0.0000 C   0  0  1  0  0  0  0  0  0  0  0  0
    8.2675    3.7047    0.0000 C   0  0  0  0  0  0  0  0  0  0  0  0
    5.9879    1.0109    0.0000 C   0  0  0  0  0  0  0  0  0  0  0  0
    8.2675   -3.2953    0.0000 C   0  0  0  0  0  0  0  0  0  0  0  0
    7.4015    1.2047    0.0000 C   0  0  0  0  0  0  0  0  0  0  0  0
   10.8656    1.2047    0.0000 C   0  0  0  0  0  0  0  0  0  0  0  0
    8.2675    5.7047    0.0000 C   0  0  0  0  0  0  0  0  0  0  0  0
    6.5355   -0.2953    0.0000 C   0  0  0  0  0  0  0  0  0  0  0  0
    9.1336   -3.7953    0.0000 C   0  0  0  0  0  0  0  0  0  0  0  0
    2.9934   -5.4046    0.0000 C   0  0  0  0  0  0  0  0  0  0  0  0
    2.0000   -3.9858    0.0000 C   0  0  0  0  0  0  0  0  0  0  0  0
    9.9996    5.7047    0.0000 C   0  0  0  0  0  0  0  0  0  0  0  0
   11.7316    5.7047    0.0000 C   0  0  1  0  0  0  0  0  0  0  0  0
    9.9996   -6.2953    0.0000 C   0  0  2  0  0  0  0  0  0  0  0  0
    2.0871   -4.9819    0.0000 C   0  0  0  0  0  0  0  0  0  0  0  0
   11.7316    6.7047    0.0000 C   0  0  0  0  0  0  0  0  0  0  0  0
    8.2675    6.7047    0.0000 C   0  0  0  0  0  0  0  0  0  0  0  0
   11.7316   -8.2953    0.0000 C   0  0  0  0  0  0  0  0  0  0  0  0
   12.5977    7.2047    0.0000 C   0  0  0  0  0  0  0  0  0  0  0  0
    9.9996   -5.2953    0.0000 C   0  0  0  0  0  0  0  0  0  0  0  0
    9.1336   -6.7953    0.0000 C   0  0  0  0  0  0  0  0  0  0  0  0
   10.8656   -7.7953    0.0000 C   0  0  0  0  0  0  0  0  0  0  0  0
   12.5977    8.2047    0.0000 C   0  0  0  0  0  0  0  0  0  0  0  0
   12.5977    5.2047    0.0000 C   0  0  0  0  0  0  0  0  0  0  0  0
    9.1336    7.2047    0.0000 C   0  0  0  0  0  0  0  0  0  0  0  0
    7.4015    7.2047    0.0000 C   0  0  0  0  0  0  0  0  0  0  0  0
   11.2316   -9.1613    0.0000 C   0  0  0  0  0  0  0  0  0  0  0  0
   12.2316   -7.4293    0.0000 C   0  0  0  0  0  0  0  0  0  0  0  0
    9.1336   -7.7953    0.0000 C   0  0  0  0  0  0  0  0  0  0  0  0
    8.2675    8.7047    0.0000 C   0  0  0  0  0  0  0  0  0  0  0  0
    9.1336    8.2047    0.0000 C   0  0  0  0  0  0  0  0  0  0  0  0
    7.4015    8.2047    0.0000 C   0  0  0  0  0  0  0  0  0  0  0  0
   13.4637    8.7047    0.0000 C   0  0  0  0  0  0  0  0  0  0  0  0
   12.5977   -9.7953    0.0000 C   0  0  0  0  0  0  0  0  0  0  0  0
   13.4637  -10.2953    0.0000 C   0  0  2  0  0  0  0  0  0  0  0  0
    8.2675    9.7047    0.0000 C   0  0  0  0  0  0  0  0  0  0  0  0
   13.4637  -11.2953    0.0000 C   0  0  0  0  0  0  0  0  0  0  0  0
    9.1336   10.2047    0.0000 C   0  0  0  0  0  0  0  0  0  0  0  0
    8.2675   -8.2953    0.0000 C   0  0  0  0  0  0  0  0  0  0  0  0
   14.3297    8.2047    0.0000 C   0  0  0  0  0  0  0  0  0  0  0  0
   13.4637    9.7047    0.0000 C   0  0  0  0  0  0  0  0  0  0  0  0
    7.4015   10.2047    0.0000 C   0  0  0  0  0  0  0  0  0  0  0  0
    9.9996    9.7047    0.0000 C   0  0  0  0  0  0  0  0  0  0  0  0
   14.3297  -11.7953    0.0000 C   0  0  0  0  0  0  0  0  0  0  0  0
    9.1336   11.2047    0.0000 C   0  0  0  0  0  0  0  0  0  0  0  0
   15.1957    8.7047    0.0000 C   0  0  0  0  0  0  0  0  0  0  0  0
   14.3297   10.2047    0.0000 C   0  0  0  0  0  0  0  0  0  0  0  0
    7.4015   11.2047    0.0000 C   0  0  0  0  0  0  0  0  0  0  0  0
    8.2675   11.7047    0.0000 C   0  0  0  0  0  0  0  0  0  0  0  0
   15.1957    9.7047    0.0000 C   0  0  0  0  0  0  0  0  0  0  0  0
   10.8656   10.2047    0.0000 C   0  0  0  0  0  0  0  0  0  0  0  0
   15.2433  -11.3886    0.0000 C   0  0  0  0  0  0  0  0  0  0  0  0
   15.4124  -12.9977    0.0000 C   0  0  0  0  0  0  0  0  0  0  0  0
    7.4015   13.2047    0.0000 C   0  0  0  0  0  0  0  0  0  0  0  0
    4.7396   -3.8498    0.0000 H   0  0  0  0  0  0  0  0  0  0  0  0
    5.1644   -3.2432    0.0000 H   0  0  0  0  0  0  0  0  0  0  0  0
    7.9384   -1.4853    0.0000 H   0  0  0  0  0  0  0  0  0  0  0  0
    5.4574   -1.2127    0.0000 H   0  0  0  0  0  0  0  0  0  0  0  0
    7.1894   -0.2127    0.0000 H   0  0  0  0  0  0  0  0  0  0  0  0
    6.7909   -0.9030    0.0000 H   0  0  0  0  0  0  0  0  0  0  0  0
    4.8691   -3.4701    0.0000 H   0  0  0  0  0  0  0  0  0  0  0  0
    5.7326   -3.6223    0.0000 H   0  0  0  0  0  0  0  0  0  0  0  0
    5.8849   -2.7588    0.0000 H   0  0  0  0  0  0  0  0  0  0  0  0
    8.6661    0.1796    0.0000 H   0  0  0  0  0  0  0  0  0  0  0  0
    7.8690    0.1796    0.0000 H   0  0  0  0  0  0  0  0  0  0  0  0
    5.0942   -1.0940    0.0000 H   0  0  0  0  0  0  0  0  0  0  0  0
    3.4005   -0.4853    0.0000 H   0  0  0  0  0  0  0  0  0  0  0  0
    8.7350   -1.2703    0.0000 H   0  0  0  0  0  0  0  0  0  0  0  0
    9.5321   -1.2703    0.0000 H   0  0  0  0  0  0  0  0  0  0  0  0
    6.3871    0.0388    0.0000 H   0  0  0  0  0  0  0  0  0  0  0  0
    8.8045   -1.9853    0.0000 H   0  0  0  0  0  0  0  0  0  0  0  0
    7.7306    3.0147    0.0000 H   0  0  0  0  0  0  0  0  0  0  0  0
    8.7350    1.7297    0.0000 H   0  0  0  0  0  0  0  0  0  0  0  0
    9.5321    1.7297    0.0000 H   0  0  0  0  0  0  0  0  0  0  0  0
   10.2116   -0.8779    0.0000 H   0  0  0  0  0  0  0  0  0  0  0  0
   10.6102   -0.1876    0.0000 H   0  0  0  0  0  0  0  0  0  0  0  0
   10.3981    3.1796    0.0000 H   0  0  0  0  0  0  0  0  0  0  0  0
    9.6011    3.1796    0.0000 H   0  0  0  0  0  0  0  0  0  0  0  0
    5.9986    0.3947    0.0000 H   0  0  0  0  0  0  0  0  0  0  0  0
    5.6695    1.8247    0.0000 H   0  0  0  0  0  0  0  0  0  0  0  0
   11.4762    2.0970    0.0000 H   0  0  0  0  0  0  0  0  0  0  0  0
   11.0777    2.7873    0.0000 H   0  0  0  0  0  0  0  0  0  0  0  0
    2.7651   -2.7946    0.0000 H   0  0  0  0  0  0  0  0  0  0  0  0
    6.8646    2.5147    0.0000 H   0  0  0  0  0  0  0  0  0  0  0  0
    9.6705    4.8947    0.0000 H   0  0  0  0  0  0  0  0  0  0  0  0
    6.5985    0.9032    0.0000 H   0  0  0  0  0  0  0  0  0  0  0  0
    6.0956    1.6214    0.0000 H   0  0  0  0  0  0  0  0  0  0  0  0
    5.3774    1.1185    0.0000 H   0  0  0  0  0  0  0  0  0  0  0  0
    9.4626    1.0147    0.0000 H   0  0  0  0  0  0  0  0  0  0  0  0
    9.6705    3.8947    0.0000 H   0  0  0  0  0  0  0  0  0  0  0  0
    7.6570    5.8124    0.0000 H   0  0  0  0  0  0  0  0  0  0  0  0
    8.0555    5.1221    0.0000 H   0  0  0  0  0  0  0  0  0  0  0  0
    5.9197   -0.3673    0.0000 H   0  0  0  0  0  0  0  0  0  0  0  0
    6.6785   -0.8986    0.0000 H   0  0  0  0  0  0  0  0  0  0  0  0
    9.7441   -3.9030    0.0000 H   0  0  0  0  0  0  0  0  0  0  0  0
    9.3456   -3.2127    0.0000 H   0  0  0  0  0  0  0  0  0  0  0  0
    3.0475   -6.0222    0.0000 H   0  0  0  0  0  0  0  0  0  0  0  0
    1.4381   -3.7237    0.0000 H   0  0  0  0  0  0  0  0  0  0  0  0
   11.1947    6.0147    0.0000 H   0  0  0  0  0  0  0  0  0  0  0  0
    6.2190   -1.4703    0.0000 H   0  0  0  0  0  0  0  0  0  0  0  0
    9.9996   -6.9153    0.0000 H   0  0  0  0  0  0  0  0  0  0  0  0
    1.5792   -5.3375    0.0000 H   0  0  0  0  0  0  0  0  0  0  0  0
   11.5196    7.2873    0.0000 H   0  0  0  0  0  0  0  0  0  0  0  0
   11.1211    6.5970    0.0000 H   0  0  0  0  0  0  0  0  0  0  0  0
   10.8656    4.5847    0.0000 H   0  0  0  0  0  0  0  0  0  0  0  0
    8.5966   -5.1053    0.0000 H   0  0  0  0  0  0  0  0  0  0  0  0
   12.8097    6.6221    0.0000 H   0  0  0  0  0  0  0  0  0  0  0  0
   13.2082    7.3124    0.0000 H   0  0  0  0  0  0  0  0  0  0  0  0
    8.9215   -6.2127    0.0000 H   0  0  0  0  0  0  0  0  0  0  0  0
    8.5230   -6.9030    0.0000 H   0  0  0  0  0  0  0  0  0  0  0  0
   11.4025   -6.4853    0.0000 H   0  0  0  0  0  0  0  0  0  0  0  0
   12.3856    8.7873    0.0000 H   0  0  0  0  0  0  0  0  0  0  0  0
   11.9871    8.0970    0.0000 H   0  0  0  0  0  0  0  0  0  0  0  0
    9.6705    6.8947    0.0000 H   0  0  0  0  0  0  0  0  0  0  0  0
    6.8646    6.8947    0.0000 H   0  0  0  0  0  0  0  0  0  0  0  0
   13.1346   -8.4853    0.0000 H   0  0  0  0  0  0  0  0  0  0  0  0
   10.6947   -8.8513    0.0000 H   0  0  0  0  0  0  0  0  0  0  0  0
   10.9216   -9.6983    0.0000 H   0  0  0  0  0  0  0  0  0  0  0  0
   11.7686   -9.4713    0.0000 H   0  0  0  0  0  0  0  0  0  0  0  0
   12.7686   -7.7393    0.0000 H   0  0  0  0  0  0  0  0  0  0  0  0
   12.5416   -6.8924    0.0000 H   0  0  0  0  0  0  0  0  0  0  0  0
   11.6947   -7.1193    0.0000 H   0  0  0  0  0  0  0  0  0  0  0  0
    9.3456   -8.3779    0.0000 H   0  0  0  0  0  0  0  0  0  0  0  0
    9.7441   -7.6876    0.0000 H   0  0  0  0  0  0  0  0  0  0  0  0
    7.5828    0.6574    0.0000 H   0  0  0  0  0  0  0  0  0  0  0  0
    9.6705    8.5147    0.0000 H   0  0  0  0  0  0  0  0  0  0  0  0
    6.8646    8.5147    0.0000 H   0  0  0  0  0  0  0  0  0  0  0  0
   14.0006  -10.6053    0.0000 H   0  0  0  0  0  0  0  0  0  0  0  0
   12.8531  -11.1876    0.0000 H   0  0  0  0  0  0  0  0  0  0  0  0
   13.2516  -11.8779    0.0000 H   0  0  0  0  0  0  0  0  0  0  0  0
   14.0006    5.3947    0.0000 H   0  0  0  0  0  0  0  0  0  0  0  0
   13.4637    6.3247    0.0000 H   0  0  0  0  0  0  0  0  0  0  0  0
   14.3297    7.5847    0.0000 H   0  0  0  0  0  0  0  0  0  0  0  0
   12.9267   10.0147    0.0000 H   0  0  0  0  0  0  0  0  0  0  0  0
    6.8646    9.8947    0.0000 H   0  0  0  0  0  0  0  0  0  0  0  0
    9.6011    9.2297    0.0000 H   0  0  0  0  0  0  0  0  0  0  0  0
   10.3981    9.2297    0.0000 H   0  0  0  0  0  0  0  0  0  0  0  0
   14.8666  -10.1053    0.0000 H   0  0  0  0  0  0  0  0  0  0  0  0
   14.3297   -9.1753    0.0000 H   0  0  0  0  0  0  0  0  0  0  0  0
    9.6705   11.5147    0.0000 H   0  0  0  0  0  0  0  0  0  0  0  0
   15.7327    8.3947    0.0000 H   0  0  0  0  0  0  0  0  0  0  0  0
   14.3297   10.8247    0.0000 H   0  0  0  0  0  0  0  0  0  0  0  0
    6.8646   11.5147    0.0000 H   0  0  0  0  0  0  0  0  0  0  0  0
   15.7327   10.0147    0.0000 H   0  0  0  0  0  0  0  0  0  0  0  0
   11.1756    9.6678    0.0000 H   0  0  0  0  0  0  0  0  0  0  0  0
   11.4025   10.5147    0.0000 H   0  0  0  0  0  0  0  0  0  0  0  0
   10.5556   10.7416    0.0000 H   0  0  0  0  0  0  0  0  0  0  0  0
   13.9735  -13.2047    0.0000 H   0  0  0  0  0  0  0  0  0  0  0  0
   15.3722  -10.7821    0.0000 H   0  0  0  0  0  0  0  0  0  0  0  0
    7.7306   -9.6053    0.0000 H   0  0  0  0  0  0  0  0  0  0  0  0
   15.6646  -13.5641    0.0000 H   0  0  0  0  0  0  0  0  0  0  0  0
    7.7115   13.7416    0.0000 H   0  0  0  0  0  0  0  0  0  0  0  0
    6.8646   13.5147    0.0000 H   0  0  0  0  0  0  0  0  0  0  0  0
    7.0915   12.6678    0.0000 H   0  0  0  0  0  0  0  0  0  0  0  0
  1 52  1  0  0  0  0
  2 38  2  0  0  0  0
  3 40  2  0  0  0  0
 45  4  1  1  0  0  0
  4154  1  0  0  0  0
  5 49  2  0  0  0  0
  6 56  2  0  0  0  0
  7 58  2  0  0  0  0
  8 59  2  0  0  0  0
  9 62  1  0  0  0  0
  9179  1  0  0  0  0
 10 60  2  0  0  0  0
 11 66  2  0  0  0  0
 12 74  2  0  0  0  0
 13 76  2  0  0  0  0
 14 78  2  0  0  0  0
 15 88  2  0  0  0  0
 16 93  1  0  0  0  0
 16204  1  0  0  0  0
 17 93  2  0  0  0  0
 18103  1  0  0  0  0
 18108  1  0  0  0  0
 19 34  1  0  0  0  0
 19 40  1  0  0  0  0
 19112  1  0  0  0  0
 20 38  1  0  0  0  0
 20 42  1  0  0  0  0
 20121  1  0  0  0  0
 36 21  1  6  0  0  0
 21 58  1  0  0  0  0
 21125  1  0  0  0  0
 22 49  1  0  0  0  0
 22 51  1  0  0  0  0
 22134  1  0  0  0  0
 23 46  1  0  0  0  0
 23 59  1  0  0  0  0
 23138  1  0  0  0  0
 24 48  1  0  0  0  0
 24 60  1  0  0  0  0
 24143  1  0  0  0  0
 55 25  1  1  0  0  0
 25 56  1  0  0  0  0
 25144  1  0  0  0  0
 26 66  1  0  0  0  0
 67 26  1  1  0  0  0
 26159  1  0  0  0  0
 27 63  1  0  0  0  0
 27 74  1  0  0  0  0
 27160  1  0  0  0  0
 68 28  1  1  0  0  0
 28 76  1  0  0  0  0
 28165  1  0  0  0  0
 29 72  1  0  0  0  0
 29 88  1  0  0  0  0
 29170  1  0  0  0  0
 30 78  1  0  0  0  0
 30185  1  0  0  0  0
 30186  1  0  0  0  0
 89 31  1  1  0  0  0
 31192  1  0  0  0  0
 31193  1  0  0  0  0
 32 98  1  0  0  0  0
 32107  1  0  0  0  0
 32202  1  0  0  0  0
 33106  1  0  0  0  0
 33107  2  0  0  0  0
 34 35  1  0  0  0  0
 34 38  1  0  0  0  0
 34 39  1  6  0  0  0
 35 43  1  0  0  0  0
 35109  1  0  0  0  0
 35110  1  0  0  0  0
 36 37  1  0  0  0  0
 36 40  1  0  0  0  0
 36111  1  0  0  0  0
 37 41  1  0  0  0  0
 37113  1  0  0  0  0
 37114  1  0  0  0  0
 39115  1  0  0  0  0
 39116  1  0  0  0  0
 39117  1  0  0  0  0
 41 44  1  0  0  0  0
 41118  1  0  0  0  0
 41119  1  0  0  0  0
 42 45  1  0  0  0  0
 42 49  1  0  0  0  0
 42120  1  1  0  0  0
 43 52  1  0  0  0  0
 43 53  2  0  0  0  0
 44 48  1  0  0  0  0
 44122  1  0  0  0  0
 44123  1  0  0  0  0
 45 57  1  0  0  0  0
 45124  1  0  0  0  0
 46 47  1  0  0  0  0
 46 56  1  6  0  0  0
 46126  1  0  0  0  0
 47 50  1  0  0  0  0
 47127  1  0  0  0  0
 47128  1  0  0  0  0
 48129  1  0  0  0  0
 48130  1  0  0  0  0
 50 54  1  0  0  0  0
 50131  1  0  0  0  0
 50132  1  0  0  0  0
 51 59  1  0  0  0  0
 51 62  1  6  0  0  0
 51133  1  0  0  0  0
 52 64  2  0  0  0  0
 53 65  1  0  0  0  0
 53137  1  0  0  0  0
 54 60  1  0  0  0  0
 54135  1  0  0  0  0
 54136  1  0  0  0  0
 55 61  1  0  0  0  0
 55 66  1  0  0  0  0
 55139  1  0  0  0  0
 57140  1  0  0  0  0
 57141  1  0  0  0  0
 57142  1  0  0  0  0
 58 63  1  0  0  0  0
 61 71  1  0  0  0  0
 61145  1  0  0  0  0
 61146  1  0  0  0  0
 62147  1  0  0  0  0
 62148  1  0  0  0  0
 63149  1  0  0  0  0
 63150  1  0  0  0  0
 64 69  1  0  0  0  0
 64151  1  0  0  0  0
 65 69  2  0  0  0  0
 65152  1  0  0  0  0
 67 70  1  0  0  0  0
 67 78  1  0  0  0  0
 67153  1  0  0  0  0
 68 74  1  0  0  0  0
 68 75  1  0  0  0  0
 68155  1  0  0  0  0
 69156  1  0  0  0  0
 70 73  1  0  0  0  0
 70157  1  0  0  0  0
 70158  1  0  0  0  0
 71 79  2  0  0  0  0
 71 80  1  0  0  0  0
 72 76  1  0  0  0  0
 72 81  1  0  0  0  0
 72 82  1  0  0  0  0
 73 77  1  0  0  0  0
 73161  1  0  0  0  0
 73162  1  0  0  0  0
 75 83  1  0  0  0  0
 75163  1  0  0  0  0
 75164  1  0  0  0  0
 77 87  1  0  0  0  0
 77166  1  0  0  0  0
 77167  1  0  0  0  0
 79 85  1  0  0  0  0
 79168  1  0  0  0  0
 80 86  2  0  0  0  0
 80169  1  0  0  0  0
 81171  1  0  0  0  0
 81172  1  0  0  0  0
 81173  1  0  0  0  0
 82174  1  0  0  0  0
 82175  1  0  0  0  0
 82176  1  0  0  0  0
 83 93  1  0  0  0  0
 83177  1  0  0  0  0
 83178  1  0  0  0  0
 84 85  2  0  0  0  0
 84 86  1  0  0  0  0
 84 90  1  0  0  0  0
 85180  1  0  0  0  0
 86181  1  0  0  0  0
 87 94  2  0  0  0  0
 87 95  1  0  0  0  0
 88 89  1  0  0  0  0
 89 91  1  0  0  0  0
 89182  1  0  0  0  0
 90 92  2  0  0  0  0
 90 96  1  0  0  0  0
 91 98  1  0  0  0  0
 91183  1  0  0  0  0
 91184  1  0  0  0  0
 92 97  1  0  0  0  0
 92 99  1  0  0  0  0
 94100  1  0  0  0  0
 94187  1  0  0  0  0
 95101  2  0  0  0  0
 95188  1  0  0  0  0
 96102  2  0  0  0  0
 96189  1  0  0  0  0
 97105  1  0  0  0  0
 97190  1  0  0  0  0
 97191  1  0  0  0  0
 98106  2  0  0  0  0
 99103  2  0  0  0  0
 99194  1  0  0  0  0
100104  2  0  0  0  0
100195  1  0  0  0  0
101104  1  0  0  0  0
101196  1  0  0  0  0
102103  1  0  0  0  0
102197  1  0  0  0  0
104198  1  0  0  0  0
105199  1  0  0  0  0
105200  1  0  0  0  0
105201  1  0  0  0  0
106203  1  0  0  0  0
107205  1  0  0  0  0
108206  1  0  0  0  0
108207  1  0  0  0  0
108208  1  0  0  0  0
M  END
> <PUBCHEM_COMPOUND_CID>
118737075

> <PUBCHEM_COMPOUND_CANONICALIZED>
1

> <PUBCHEM_CACTVS_COMPLEXITY>
3010

> <PUBCHEM_CACTVS_HBOND_ACCEPTOR>
20

> <PUBCHEM_CACTVS_HBOND_DONOR>
17

> <PUBCHEM_CACTVS_ROTATABLE_BOND>
31

> <PUBCHEM_CACTVS_SUBSKEYS>
AAADcfB//wAAAAAAAAAAAAAAAAAAAWAAAAAwYMGAAAAAAAAB1AAAHwAQCAAADLzhng4/npbJlgCoAzX3fAACiC2xMqAJ2YG+eIiOfjbE+TuUcCAu9hPY6Ce83/Ke4AABAAAQAADAAAIAACAAAAAAAAAAAA==

> <PUBCHEM_IUPAC_OPENEYE_NAME>
(4S)-4-[[2-[[(2S)-2-amino-3-(1H-imidazol-5-yl)propanoyl]amino]-2-methyl-propanoyl]amino]-5-[[2-[[(2S,5S,8S,11S,21S)-11-[[(1S)-2-[[(1S)-1-carbamoyl-4-phenyl-butyl]amino]-1-[[4-(2-ethyl-4-methoxy-phenyl)phenyl]methyl]-2-oxo-ethyl]carbamoyl]-2-[(2-fluorophenyl)methyl]-5-[(1R)-1-hydroxyethyl]-8-(hydroxymethyl)-2-methyl-3,6,9,15,22-pentaoxo-1,4,7,10,16-pentazacyclodocos-21-yl]amino]-2-oxo-ethyl]amino]-5-oxo-pentanoic acid

> <PUBCHEM_IUPAC_CAS_NAME>
(4S)-4-[[2-[[(2S)-2-amino-3-(1H-imidazol-5-yl)-1-oxopropyl]amino]-2-methyl-1-oxopropyl]amino]-5-[[2-[[(2S,5S,8S,11S,21S)-11-[[[(2S)-1-[[(2S)-1-amino-1-oxo-5-phenylpentan-2-yl]amino]-3-[4-(2-ethyl-4-methoxyphenyl)phenyl]-1-oxopropan-2-yl]amino]-oxomethyl]-2-[(2-fluorophenyl)methyl]-5-[(1R)-1-hydroxyethyl]-8-(hydroxymethyl)-2-methyl-3,6,9,15,22-pentaoxo-1,4,7,10,16-pentazacyclodocos-21-yl]amino]-2-oxoethyl]amino]-5-oxopentanoic acid

> <PUBCHEM_IUPAC_NAME>
(4S)-4-[[2-[[(2S)-2-amino-3-(1H-imidazol-5-yl)propanoyl]amino]-2-methylpropanoyl]amino]-5-[[2-[[(2S,5S,8S,11S,21S)-11-[[(2S)-1-[[(2S)-1-amino-1-oxo-5-phenylpentan-2-yl]amino]-3-[4-(2-ethyl-4-methoxyphenyl)phenyl]-1-oxopropan-2-yl]carbamoyl]-2-[(2-fluorophenyl)methyl]-5-[(1R)-1-hydroxyethyl]-8-(hydroxymethyl)-2-methyl-3,6,9,15,22-pentaoxo-1,4,7,10,16-pentazacyclodocos-21-yl]amino]-2-oxoethyl]amino]-5-oxopentanoic acid

> <PUBCHEM_IUPAC_SYSTEMATIC_NAME>
(4S)-4-[[2-[[(2S)-2-azanyl-3-(1H-imidazol-5-yl)propanoyl]amino]-2-methyl-propanoyl]amino]-5-[[2-[[(2S,5S,8S,11S,21S)-11-[[(2S)-1-[[(2S)-1-azanyl-1-oxidanylidene-5-phenyl-pentan-2-yl]amino]-3-[4-(2-ethyl-4-methoxy-phenyl)phenyl]-1-oxidanylidene-propan-2-yl]carbamoyl]-2-[(2-fluorophenyl)methyl]-8-(hydroxymethyl)-2-methyl-5-[(1R)-1-oxidanylethyl]-3,6,9,15,22-pentakis(oxidanylidene)-1,4,7,10,16-pentazacyclodocos-21-yl]amino]-2-oxidanylidene-ethyl]amino]-5-oxidanylidene-pentanoic acid

> <PUBCHEM_IUPAC_TRADITIONAL_NAME>
(4S)-4-[[2-[[(2S)-2-amino-3-(1H-imidazol-5-yl)propanoyl]amino]-2-methyl-propanoyl]amino]-5-[[2-[[(2S,5S,8S,11S,21S)-11-[[(1S)-2-[[(1S)-1-carbamoyl-4-phenyl-butyl]amino]-1-[4-(2-ethyl-4-methoxy-phenyl)benzyl]-2-keto-ethyl]carbamoyl]-2-(2-fluorobenzyl)-5-[(1R)-1-hydroxyethyl]-3,6,9,15,22-pentaketo-2-methyl-8-methylol-1,4,7,10,16-pentazacyclodocos-21-yl]amino]-2-keto-ethyl]amino]-5-keto-valeric acid

> <PUBCHEM_IUPAC_INCHI>
InChI=1S/C75H100FN15O17/c1-7-46-36-50(108-6)30-31-51(46)47-28-26-45(27-29-47)35-58(68(102)84-54(64(78)98)23-15-19-44-17-9-8-10-18-44)86-67(101)55-24-16-25-60(94)80-34-14-13-22-56(70(104)91-75(5,38-48-20-11-12-21-52(48)76)73(107)89-63(43(2)93)71(105)87-59(41-92)69(103)85-55)83-61(95)40-81-66(100)57(32-33-62(96)97)88-72(106)74(3,4)90-65(99)53(77)37-49-39-79-42-82-49/h8-12,17-18,20-21,26-31,36,39,42-43,53-59,63,92-93H,7,13-16,19,22-25,32-35,37-38,40-41,77H2,1-6H3,(H2,78,98)(H,79,82)(H,80,94)(H,81,100)(H,83,95)(H,84,102)(H,85,103)(H,86,101)(H,87,105)(H,88,106)(H,89,107)(H,90,99)(H,91,104)(H,96,97)/t43-,53+,54+,55+,56+,57+,58+,59+,63+,75+/m1/s1

> <PUBCHEM_IUPAC_INCHIKEY>
UAWQOJPPXFIHFG-PQGZZJJASA-N

> <PUBCHEM_XLOGP3_AA>
0.5

> <PUBCHEM_EXACT_MASS>
1501.741

> <PUBCHEM_MOLECULAR_FORMULA>
C75H100FN15O17

> <PUBCHEM_MOLECULAR_WEIGHT>
1502.711

> <PUBCHEM_OPENEYE_CAN_SMILES>
CCC1=C(C=CC(=C1)OC)C2=CC=C(C=C2)CC(C(=O)NC(CCCC3=CC=CC=C3)C(=O)N)NC(=O)C4CCCC(=O)NCCCCC(C(=O)NC(C(=O)NC(C(=O)NC(C(=O)N4)CO)C(C)O)(C)CC5=CC=CC=C5F)NC(=O)CNC(=O)C(CCC(=O)O)NC(=O)C(C)(C)NC(=O)C(CC6=CN=CN6)N

> <PUBCHEM_OPENEYE_ISO_SMILES>
CCC1=C(C=CC(=C1)OC)C2=CC=C(C=C2)C[C@@H](C(=O)N[C@@H](CCCC3=CC=CC=C3)C(=O)N)NC(=O)[C@@H]4CCCC(=O)NCCCC[C@@H](C(=O)N[C@@](C(=O)N[C@H](C(=O)N[C@H](C(=O)N4)CO)[C@@H](C)O)(C)CC5=CC=CC=C5F)NC(=O)CNC(=O)[C@H](CCC(=O)O)NC(=O)C(C)(C)NC(=O)[C@H](CC6=CN=CN6)N

> <PUBCHEM_CACTVS_TPSA>
505

> <PUBCHEM_MONOISOTOPIC_WEIGHT>
1501.741

> <PUBCHEM_TOTAL_CHARGE>
0

> <PUBCHEM_HEAVY_ATOM_COUNT>
108

> <PUBCHEM_ATOM_DEF_STEREO_COUNT>
10

> <PUBCHEM_ATOM_UDEF_STEREO_COUNT>
0

> <PUBCHEM_BOND_DEF_STEREO_COUNT>
0

> <PUBCHEM_BOND_UDEF_STEREO_COUNT>
0

> <PUBCHEM_ISOTOPIC_ATOM_COUNT>
0

> <PUBCHEM_COMPONENT_COUNT>
1

> <PUBCHEM_CACTVS_TAUTO_COUNT>
998

> <PUBCHEM_COORDINATE_TYPE>
1
5
255

> <PUBCHEM_BONDANNOTATIONS>
100  104  8
101  104  8
102  103  8
36  21  6
55  25  5
67  26  5
68  28  5
89  31  5
32  107  8
32  98  8
33  106  8
33  107  8
34  39  6
45  4  5
42  120  5
43  52  8
43  53  8
46  56  6
51  62  6
52  64  8
53  65  8
64  69  8
65  69  8
71  79  8
71  80  8
79  85  8
80  86  8
84  85  8
84  86  8
87  94  8
87  95  8
90  92  8
90  96  8
92  99  8
94  100  8
95  101  8
96  102  8
98  106  8
99  103  8

$$$$
