118737078
  -OEChem-03161706532D

191196  0     1  0  0  0  0  0999 V2000
    6.5000    2.3971    0.0000 S   0  0  0  0  0  0  0  0  0  0  0  0
    6.0000    1.5311    0.0000 S   0  0  0  0  0  0  0  0  0  0  0  0
    7.2680    4.9952    0.0000 F   0  0  0  0  0  0  0  0  0  0  0  0
   10.5000    5.8612    0.0000 O   0  0  0  0  0  0  0  0  0  0  0  0
   13.0000    4.9952    0.0000 O   0  0  0  0  0  0  0  0  0  0  0  0
    8.0000    3.2631    0.0000 O   0  0  0  0  0  0  0  0  0  0  0  0
   11.5000    2.3971    0.0000 O   0  0  0  0  0  0  0  0  0  0  0  0
   13.5000    0.6651    0.0000 O   0  0  0  0  0  0  0  0  0  0  0  0
   15.0000    3.2631    0.0000 O   0  0  0  0  0  0  0  0  0  0  0  0
   16.5000   -2.7990    0.0000 O   0  0  0  0  0  0  0  0  0  0  0  0
   17.5000    0.6651    0.0000 O   0  0  0  0  0  0  0  0  0  0  0  0
    4.5000    5.8612    0.0000 O   0  0  0  0  0  0  0  0  0  0  0  0
   13.0000   -1.9330    0.0000 O   0  0  0  0  0  0  0  0  0  0  0  0
    2.0000    3.2631    0.0000 O   0  0  0  0  0  0  0  0  0  0  0  0
    3.0000   -0.2010    0.0000 O   0  0  0  0  0  0  0  0  0  0  0  0
   18.0000    3.2631    0.0000 O   0  0  0  0  0  0  0  0  0  0  0  0
   18.0000    1.5311    0.0000 O   0  0  0  0  0  0  0  0  0  0  0  0
    3.5000   -1.0670    0.0000 O   0  0  0  0  0  0  0  0  0  0  0  0
    6.7057    1.2303    0.0000 O   0  0  0  0  0  0  0  0  0  0  0  0
   21.0000   -7.1292    0.0000 O   0  0  0  0  0  0  0  0  0  0  0  0
    6.7057    2.9624    0.0000 O   0  0  0  0  0  0  0  0  0  0  0  0
    8.0000    4.9952    0.0000 N   0  0  0  0  0  0  0  0  0  0  0  0
   10.5000    4.1292    0.0000 N   0  0  0  0  0  0  0  0  0  0  0  0
   13.0000    3.2631    0.0000 N   0  0  0  0  0  0  0  0  0  0  0  0
    6.0000    4.9952    0.0000 N   0  0  0  0  0  0  0  0  0  0  0  0
   15.0000    1.5311    0.0000 N   0  0  0  0  0  0  0  0  0  0  0  0
   16.0000   -0.2010    0.0000 N   0  0  0  0  0  0  0  0  0  0  0  0
   15.0000   -1.9330    0.0000 N   0  0  0  0  0  0  0  0  0  0  0  0
    3.5000    4.1292    0.0000 N   0  0  0  0  0  0  0  0  0  0  0  0
    3.0000    1.5311    0.0000 N   0  0  0  0  0  0  0  0  0  0  0  0
    5.0000   -0.2010    0.0000 N   0  0  0  0  0  0  0  0  0  0  0  0
   13.0000   -3.6651    0.0000 N   0  0  0  0  0  0  0  0  0  0  0  0
    6.0000   -1.9330    0.0000 N   0  0  0  0  0  0  0  0  0  0  0  0
    5.9945   -3.7696    0.0000 N   0  0  0  0  0  0  0  0  0  0  0  0
    5.3364   -5.2477    0.0000 N   0  0  0  0  0  0  0  0  0  0  0  0
    9.0000    4.9952    0.0000 C   0  0  1  0  0  0  0  0  0  0  0  0
    9.0000    5.9952    0.0000 C   0  0  0  0  0  0  0  0  0  0  0  0
   10.0000    4.9952    0.0000 C   0  0  0  0  0  0  0  0  0  0  0  0
    9.0000    3.9952    0.0000 C   0  0  0  0  0  0  0  0  0  0  0  0
   11.5000    4.1292    0.0000 C   0  0  1  0  0  0  0  0  0  0  0  0
    8.1340    6.4952    0.0000 C   0  0  0  0  0  0  0  0  0  0  0  0
   12.0000    4.9952    0.0000 C   0  0  1  0  0  0  0  0  0  0  0  0
    7.5000    4.1292    0.0000 C   0  0  0  0  0  0  0  0  0  0  0  0
    6.5000    4.1292    0.0000 C   0  0  2  0  0  0  0  0  0  0  0  0
   12.0000    3.2631    0.0000 C   0  0  0  0  0  0  0  0  0  0  0  0
    7.2680    5.9952    0.0000 C   0  0  0  0  0  0  0  0  0  0  0  0
    8.1340    7.4952    0.0000 C   0  0  0  0  0  0  0  0  0  0  0  0
   13.5000    2.3971    0.0000 C   0  0  2  0  0  0  0  0  0  0  0  0
   11.5000    5.8612    0.0000 C   0  0  0  0  0  0  0  0  0  0  0  0
    6.0000    3.2631    0.0000 C   0  0  0  0  0  0  0  0  0  0  0  0
   16.5000   -1.0670    0.0000 C   0  0  1  0  0  0  0  0  0  0  0  0
   16.0000    1.5311    0.0000 C   0  0  2  0  0  0  0  0  0  0  0  0
   14.5000   -2.7990    0.0000 C   0  0  1  0  0  0  0  0  0  0  0  0
   14.5000    2.3971    0.0000 C   0  0  0  0  0  0  0  0  0  0  0  0
   17.5000   -1.0670    0.0000 C   0  0  0  0  0  0  0  0  0  0  0  0
   15.0000   -3.6651    0.0000 C   0  0  0  0  0  0  0  0  0  0  0  0
    6.4019    6.4952    0.0000 C   0  0  0  0  0  0  0  0  0  0  0  0
    7.2680    7.9952    0.0000 C   0  0  0  0  0  0  0  0  0  0  0  0
   13.0000    1.5311    0.0000 C   0  0  0  0  0  0  0  0  0  0  0  0
   16.0000   -1.9330    0.0000 C   0  0  0  0  0  0  0  0  0  0  0  0
   14.5000   -4.5311    0.0000 C   0  0  0  0  0  0  0  0  0  0  0  0
   16.5000    0.6651    0.0000 C   0  0  0  0  0  0  0  0  0  0  0  0
    6.4019    7.4952    0.0000 C   0  0  0  0  0  0  0  0  0  0  0  0
    5.0000    4.9952    0.0000 C   0  0  0  0  0  0  0  0  0  0  0  0
   16.5000    2.3971    0.0000 C   0  0  0  0  0  0  0  0  0  0  0  0
   18.0000   -1.9330    0.0000 C   0  0  0  0  0  0  0  0  0  0  0  0
   15.0000   -5.3971    0.0000 C   0  0  0  0  0  0  0  0  0  0  0  0
    3.5000    2.3971    0.0000 C   0  0  1  0  0  0  0  0  0  0  0  0
    4.5000    4.1292    0.0000 C   0  0  0  0  0  0  0  0  0  0  0  0
    4.5000    0.6651    0.0000 C   0  0  1  0  0  0  0  0  0  0  0  0
   13.5000   -2.7990    0.0000 C   0  0  0  0  0  0  0  0  0  0  0  0
    5.0000    1.5311    0.0000 C   0  0  0  0  0  0  0  0  0  0  0  0
    4.4397    2.7391    0.0000 C   0  0  0  0  0  0  0  0  0  0  0  0
    3.0000    3.2631    0.0000 C   0  0  0  0  0  0  0  0  0  0  0  0
    3.5000    0.6651    0.0000 C   0  0  0  0  0  0  0  0  0  0  0  0
   19.0000   -1.9330    0.0000 C   0  0  0  0  0  0  0  0  0  0  0  0
   17.5000   -2.7990    0.0000 C   0  0  0  0  0  0  0  0  0  0  0  0
   14.5000   -6.2631    0.0000 C   0  0  0  0  0  0  0  0  0  0  0  0
   19.0000   -3.6651    0.0000 C   0  0  0  0  0  0  0  0  0  0  0  0
   17.5000    2.3971    0.0000 C   0  0  0  0  0  0  0  0  0  0  0  0
   19.5000   -2.7990    0.0000 C   0  0  0  0  0  0  0  0  0  0  0  0
   18.0000   -3.6651    0.0000 C   0  0  0  0  0  0  0  0  0  0  0  0
    5.2057    2.0964    0.0000 C   0  0  0  0  0  0  0  0  0  0  0  0
   19.5000   -4.5311    0.0000 C   0  0  0  0  0  0  0  0  0  0  0  0
    5.0000   -1.9330    0.0000 C   0  0  2  0  0  0  0  0  0  0  0  0
    4.5000   -1.0670    0.0000 C   0  0  0  0  0  0  0  0  0  0  0  0
   15.0000   -7.1292    0.0000 C   0  0  0  0  0  0  0  0  0  0  0  0
   13.5000   -6.2631    0.0000 C   0  0  0  0  0  0  0  0  0  0  0  0
   20.5000   -4.5311    0.0000 C   0  0  0  0  0  0  0  0  0  0  0  0
    4.5000   -2.7990    0.0000 C   0  0  0  0  0  0  0  0  0  0  0  0
   19.0000   -5.3971    0.0000 C   0  0  0  0  0  0  0  0  0  0  0  0
   21.0000   -3.6651    0.0000 C   0  0  0  0  0  0  0  0  0  0  0  0
    6.2057    2.0964    0.0000 C   0  0  0  0  0  0  0  0  0  0  0  0
   14.5000   -7.9952    0.0000 C   0  0  0  0  0  0  0  0  0  0  0  0
   13.0000   -7.1292    0.0000 C   0  0  0  0  0  0  0  0  0  0  0  0
   21.0000   -5.3971    0.0000 C   0  0  0  0  0  0  0  0  0  0  0  0
   13.5000   -7.9952    0.0000 C   0  0  0  0  0  0  0  0  0  0  0  0
    5.0000   -3.6651    0.0000 C   0  0  0  0  0  0  0  0  0  0  0  0
   19.5000   -6.2631    0.0000 C   0  0  0  0  0  0  0  0  0  0  0  0
   20.5000   -6.2631    0.0000 C   0  0  0  0  0  0  0  0  0  0  0  0
   22.0000   -3.6651    0.0000 C   0  0  0  0  0  0  0  0  0  0  0  0
    4.5933   -4.5786    0.0000 C   0  0  0  0  0  0  0  0  0  0  0  0
    6.2024   -4.7477    0.0000 C   0  0  0  0  0  0  0  0  0  0  0  0
   20.5000   -7.9952    0.0000 C   0  0  0  0  0  0  0  0  0  0  0  0
    9.6106    5.8875    0.0000 H   0  0  0  0  0  0  0  0  0  0  0  0
    9.2120    6.5778    0.0000 H   0  0  0  0  0  0  0  0  0  0  0  0
    8.3800    3.9952    0.0000 H   0  0  0  0  0  0  0  0  0  0  0  0
    9.0000    3.3752    0.0000 H   0  0  0  0  0  0  0  0  0  0  0  0
    9.6200    3.9952    0.0000 H   0  0  0  0  0  0  0  0  0  0  0  0
    7.6900    5.5321    0.0000 H   0  0  0  0  0  0  0  0  0  0  0  0
   11.1900    4.6661    0.0000 H   0  0  0  0  0  0  0  0  0  0  0  0
   10.1900    3.5922    0.0000 H   0  0  0  0  0  0  0  0  0  0  0  0
   12.3100    5.5321    0.0000 H   0  0  0  0  0  0  0  0  0  0  0  0
    6.8100    4.6661    0.0000 H   0  0  0  0  0  0  0  0  0  0  0  0
    8.6709    7.8052    0.0000 H   0  0  0  0  0  0  0  0  0  0  0  0
   12.8800    2.3971    0.0000 H   0  0  0  0  0  0  0  0  0  0  0  0
   13.3100    3.8001    0.0000 H   0  0  0  0  0  0  0  0  0  0  0  0
   12.0369    6.1712    0.0000 H   0  0  0  0  0  0  0  0  0  0  0  0
   11.1900    6.3982    0.0000 H   0  0  0  0  0  0  0  0  0  0  0  0
   10.9631    5.5512    0.0000 H   0  0  0  0  0  0  0  0  0  0  0  0
    5.5250    3.6617    0.0000 H   0  0  0  0  0  0  0  0  0  0  0  0
    5.5250    2.8646    0.0000 H   0  0  0  0  0  0  0  0  0  0  0  0
    6.3100    5.5321    0.0000 H   0  0  0  0  0  0  0  0  0  0  0  0
   15.8800   -1.0670    0.0000 H   0  0  0  0  0  0  0  0  0  0  0  0
   15.6900    2.0680    0.0000 H   0  0  0  0  0  0  0  0  0  0  0  0
   15.1200   -2.7990    0.0000 H   0  0  0  0  0  0  0  0  0  0  0  0
   18.0826   -0.8549    0.0000 H   0  0  0  0  0  0  0  0  0  0  0  0
   17.3923   -0.4564    0.0000 H   0  0  0  0  0  0  0  0  0  0  0  0
   15.4749   -4.0636    0.0000 H   0  0  0  0  0  0  0  0  0  0  0  0
   15.4749   -3.2665    0.0000 H   0  0  0  0  0  0  0  0  0  0  0  0
    5.8650    6.1852    0.0000 H   0  0  0  0  0  0  0  0  0  0  0  0
    7.2680    8.6152    0.0000 H   0  0  0  0  0  0  0  0  0  0  0  0
   12.5251    1.9296    0.0000 H   0  0  0  0  0  0  0  0  0  0  0  0
   12.5251    1.1326    0.0000 H   0  0  0  0  0  0  0  0  0  0  0  0
   13.3100    5.5321    0.0000 H   0  0  0  0  0  0  0  0  0  0  0  0
   14.6900    0.9942    0.0000 H   0  0  0  0  0  0  0  0  0  0  0  0
   15.3800   -0.2010    0.0000 H   0  0  0  0  0  0  0  0  0  0  0  0
   14.0251   -4.1326    0.0000 H   0  0  0  0  0  0  0  0  0  0  0  0
   14.0251   -4.9296    0.0000 H   0  0  0  0  0  0  0  0  0  0  0  0
    5.8650    7.8052    0.0000 H   0  0  0  0  0  0  0  0  0  0  0  0
   14.6900   -1.3961    0.0000 H   0  0  0  0  0  0  0  0  0  0  0  0
   16.6077    3.0077    0.0000 H   0  0  0  0  0  0  0  0  0  0  0  0
   15.9174    2.6092    0.0000 H   0  0  0  0  0  0  0  0  0  0  0  0
   15.4749   -5.7956    0.0000 H   0  0  0  0  0  0  0  0  0  0  0  0
   15.4749   -4.9986    0.0000 H   0  0  0  0  0  0  0  0  0  0  0  0
    3.8985    1.9222    0.0000 H   0  0  0  0  0  0  0  0  0  0  0  0
    4.3923    3.5186    0.0000 H   0  0  0  0  0  0  0  0  0  0  0  0
    5.0826    3.9171    0.0000 H   0  0  0  0  0  0  0  0  0  0  0  0
    5.1200    0.6651    0.0000 H   0  0  0  0  0  0  0  0  0  0  0  0
    5.1077    2.1417    0.0000 H   0  0  0  0  0  0  0  0  0  0  0  0
    4.4174    1.7431    0.0000 H   0  0  0  0  0  0  0  0  0  0  0  0
    4.9146    3.1377    0.0000 H   0  0  0  0  0  0  0  0  0  0  0  0
    4.1297    3.2761    0.0000 H   0  0  0  0  0  0  0  0  0  0  0  0
    3.1900    4.6661    0.0000 H   0  0  0  0  0  0  0  0  0  0  0  0
    2.3800    1.5311    0.0000 H   0  0  0  0  0  0  0  0  0  0  0  0
   19.3100   -1.3961    0.0000 H   0  0  0  0  0  0  0  0  0  0  0  0
   16.8800   -2.7990    0.0000 H   0  0  0  0  0  0  0  0  0  0  0  0
    5.6200   -0.2010    0.0000 H   0  0  0  0  0  0  0  0  0  0  0  0
   20.1200   -2.7990    0.0000 H   0  0  0  0  0  0  0  0  0  0  0  0
   17.6900   -4.2020    0.0000 H   0  0  0  0  0  0  0  0  0  0  0  0
    4.6877    1.7556    0.0000 H   0  0  0  0  0  0  0  0  0  0  0  0
    5.3835    1.5024    0.0000 H   0  0  0  0  0  0  0  0  0  0  0  0
   13.1900    0.1281    0.0000 H   0  0  0  0  0  0  0  0  0  0  0  0
    5.3100   -1.3961    0.0000 H   0  0  0  0  0  0  0  0  0  0  0  0
   15.6200   -7.1292    0.0000 H   0  0  0  0  0  0  0  0  0  0  0  0
   13.1900   -5.7262    0.0000 H   0  0  0  0  0  0  0  0  0  0  0  0
   12.3800   -3.6651    0.0000 H   0  0  0  0  0  0  0  0  0  0  0  0
   13.3100   -4.2020    0.0000 H   0  0  0  0  0  0  0  0  0  0  0  0
    4.0250   -2.4005    0.0000 H   0  0  0  0  0  0  0  0  0  0  0  0
    4.0250   -3.1976    0.0000 H   0  0  0  0  0  0  0  0  0  0  0  0
   18.3800   -5.3971    0.0000 H   0  0  0  0  0  0  0  0  0  0  0  0
   21.1077   -3.0545    0.0000 H   0  0  0  0  0  0  0  0  0  0  0  0
   20.4174   -3.4530    0.0000 H   0  0  0  0  0  0  0  0  0  0  0  0
   14.8100   -8.5321    0.0000 H   0  0  0  0  0  0  0  0  0  0  0  0
   12.3800   -7.1292    0.0000 H   0  0  0  0  0  0  0  0  0  0  0  0
   21.6200   -5.3971    0.0000 H   0  0  0  0  0  0  0  0  0  0  0  0
   13.1900   -8.5321    0.0000 H   0  0  0  0  0  0  0  0  0  0  0  0
   18.6200    3.2631    0.0000 H   0  0  0  0  0  0  0  0  0  0  0  0
   19.1900   -6.8001    0.0000 H   0  0  0  0  0  0  0  0  0  0  0  0
    6.3100   -2.4700    0.0000 H   0  0  0  0  0  0  0  0  0  0  0  0
    6.3100   -1.3961    0.0000 H   0  0  0  0  0  0  0  0  0  0  0  0
   22.0000   -4.2851    0.0000 H   0  0  0  0  0  0  0  0  0  0  0  0
   22.6200   -3.6651    0.0000 H   0  0  0  0  0  0  0  0  0  0  0  0
   22.0000   -3.0451    0.0000 H   0  0  0  0  0  0  0  0  0  0  0  0
    6.4094   -3.3088    0.0000 H   0  0  0  0  0  0  0  0  0  0  0  0
    3.9868   -4.7075    0.0000 H   0  0  0  0  0  0  0  0  0  0  0  0
    7.3257    1.2303    0.0000 H   0  0  0  0  0  0  0  0  0  0  0  0
    6.7688   -4.9999    0.0000 H   0  0  0  0  0  0  0  0  0  0  0  0
   19.9631   -7.6852    0.0000 H   0  0  0  0  0  0  0  0  0  0  0  0
   20.1900   -8.5321    0.0000 H   0  0  0  0  0  0  0  0  0  0  0  0
   21.0369   -8.3052    0.0000 H   0  0  0  0  0  0  0  0  0  0  0  0
  1  2  1  0  0  0  0
  1 50  1  0  0  0  0
  2 72  1  0  0  0  0
  3 46  1  0  0  0  0
  4 38  2  0  0  0  0
 42  5  1  1  0  0  0
  5135  1  0  0  0  0
  6 43  2  0  0  0  0
  7 45  2  0  0  0  0
  8 59  1  0  0  0  0
  8163  1  0  0  0  0
  9 54  2  0  0  0  0
 10 60  2  0  0  0  0
 11 62  2  0  0  0  0
 12 64  2  0  0  0  0
 13 71  2  0  0  0  0
 14 74  2  0  0  0  0
 15 75  2  0  0  0  0
 16 80  1  0  0  0  0
 16178  1  0  0  0  0
 17 80  2  0  0  0  0
 18 86  2  0  0  0  0
 19 93  1  0  0  0  0
 19187  1  0  0  0  0
 20100  1  0  0  0  0
 20104  1  0  0  0  0
 21 93  2  0  0  0  0
 36 22  1  1  0  0  0
 22 43  1  0  0  0  0
 22110  1  0  0  0  0
 23 38  1  0  0  0  0
 40 23  1  1  0  0  0
 23112  1  0  0  0  0
 24 45  1  0  0  0  0
 48 24  1  6  0  0  0
 24117  1  0  0  0  0
 25 44  1  0  0  0  0
 25 64  1  0  0  0  0
 25123  1  0  0  0  0
 52 26  1  1  0  0  0
 26 54  1  0  0  0  0
 26136  1  0  0  0  0
 51 27  1  1  0  0  0
 27 62  1  0  0  0  0
 27137  1  0  0  0  0
 53 28  1  1  0  0  0
 28 60  1  0  0  0  0
 28141  1  0  0  0  0
 29 69  1  0  0  0  0
 29 74  1  0  0  0  0
 29154  1  0  0  0  0
 30 68  1  0  0  0  0
 30 75  1  0  0  0  0
 30155  1  0  0  0  0
 70 31  1  6  0  0  0
 31 86  1  0  0  0  0
 31158  1  0  0  0  0
 32 71  1  0  0  0  0
 32167  1  0  0  0  0
 32168  1  0  0  0  0
 85 33  1  1  0  0  0
 33180  1  0  0  0  0
 33181  1  0  0  0  0
 34 98  1  0  0  0  0
 34103  1  0  0  0  0
 34185  1  0  0  0  0
 35102  1  0  0  0  0
 35103  2  0  0  0  0
 36 37  1  0  0  0  0
 36 38  1  0  0  0  0
 36 39  1  0  0  0  0
 37 41  1  0  0  0  0
 37105  1  0  0  0  0
 37106  1  0  0  0  0
 39107  1  0  0  0  0
 39108  1  0  0  0  0
 39109  1  0  0  0  0
 40 42  1  0  0  0  0
 40 45  1  0  0  0  0
 40111  1  0  0  0  0
 41 46  1  0  0  0  0
 41 47  2  0  0  0  0
 42 49  1  0  0  0  0
 42113  1  0  0  0  0
 44 43  1  6  0  0  0
 44 50  1  0  0  0  0
 44114  1  0  0  0  0
 46 57  2  0  0  0  0
 47 58  1  0  0  0  0
 47115  1  0  0  0  0
 48 54  1  0  0  0  0
 48 59  1  0  0  0  0
 48116  1  0  0  0  0
 49118  1  0  0  0  0
 49119  1  0  0  0  0
 49120  1  0  0  0  0
 50121  1  0  0  0  0
 50122  1  0  0  0  0
 51 55  1  0  0  0  0
 51 60  1  0  0  0  0
 51124  1  0  0  0  0
 52 62  1  0  0  0  0
 52 65  1  0  0  0  0
 52125  1  0  0  0  0
 53 56  1  0  0  0  0
 53 71  1  0  0  0  0
 53126  1  0  0  0  0
 55 66  1  0  0  0  0
 55127  1  0  0  0  0
 55128  1  0  0  0  0
 56 61  1  0  0  0  0
 56129  1  0  0  0  0
 56130  1  0  0  0  0
 57 63  1  0  0  0  0
 57131  1  0  0  0  0
 58 63  2  0  0  0  0
 58132  1  0  0  0  0
 59133  1  0  0  0  0
 59134  1  0  0  0  0
 61 67  1  0  0  0  0
 61138  1  0  0  0  0
 61139  1  0  0  0  0
 63140  1  0  0  0  0
 64 69  1  0  0  0  0
 65 80  1  0  0  0  0
 65142  1  0  0  0  0
 65143  1  0  0  0  0
 66 76  2  0  0  0  0
 66 77  1  0  0  0  0
 67 78  1  0  0  0  0
 67144  1  0  0  0  0
 67145  1  0  0  0  0
 68 73  1  6  0  0  0
 68 74  1  0  0  0  0
 68146  1  0  0  0  0
 69147  1  0  0  0  0
 69148  1  0  0  0  0
 70 72  1  0  0  0  0
 70 75  1  0  0  0  0
 70149  1  0  0  0  0
 72150  1  0  0  0  0
 72151  1  0  0  0  0
 73 83  1  0  0  0  0
 73152  1  0  0  0  0
 73153  1  0  0  0  0
 76 81  1  0  0  0  0
 76156  1  0  0  0  0
 77 82  2  0  0  0  0
 77157  1  0  0  0  0
 78 87  2  0  0  0  0
 78 88  1  0  0  0  0
 79 81  2  0  0  0  0
 79 82  1  0  0  0  0
 79 84  1  0  0  0  0
 81159  1  0  0  0  0
 82160  1  0  0  0  0
 83 93  1  0  0  0  0
 83161  1  0  0  0  0
 83162  1  0  0  0  0
 84 89  2  0  0  0  0
 84 91  1  0  0  0  0
 85 86  1  0  0  0  0
 85 90  1  0  0  0  0
 85164  1  0  0  0  0
 87 94  1  0  0  0  0
 87165  1  0  0  0  0
 88 95  2  0  0  0  0
 88166  1  0  0  0  0
 89 92  1  0  0  0  0
 89 96  1  0  0  0  0
 90 98  1  0  0  0  0
 90169  1  0  0  0  0
 90170  1  0  0  0  0
 91 99  2  0  0  0  0
 91171  1  0  0  0  0
 92101  1  0  0  0  0
 92172  1  0  0  0  0
 92173  1  0  0  0  0
 94 97  2  0  0  0  0
 94174  1  0  0  0  0
 95 97  1  0  0  0  0
 95175  1  0  0  0  0
 96100  2  0  0  0  0
 96176  1  0  0  0  0
 97177  1  0  0  0  0
 98102  2  0  0  0  0
 99100  1  0  0  0  0
 99179  1  0  0  0  0
101182  1  0  0  0  0
101183  1  0  0  0  0
101184  1  0  0  0  0
102186  1  0  0  0  0
103188  1  0  0  0  0
104189  1  0  0  0  0
104190  1  0  0  0  0
104191  1  0  0  0  0
M  END
> <PUBCHEM_COMPOUND_CID>
118737078

> <PUBCHEM_COMPOUND_CANONICALIZED>
0

> <PUBCHEM_CACTVS_COMPLEXITY>
2920

> <PUBCHEM_CACTVS_HBOND_ACCEPTOR>
23

> <PUBCHEM_CACTVS_HBOND_DONOR>
17

> <PUBCHEM_CACTVS_ROTATABLE_BOND>
35

> <PUBCHEM_CACTVS_SUBSKEYS>
AAADcfB//wBgAAAAAAAAAAAAAAAAAWAAAAAwYMGAAAAAAAAB1AAAHwQQCAAADLzl3g6/npbJlgCoAzX3fAACiC2xMqAJ2YG+eIiOfj7E+TuUcCAu9hPY6Ce/3/KO4AABAAAQAADAAAIAACAAAAAAAAAAAA==

> <PUBCHEM_IUPAC_INCHI>
InChI=1S/C69H87FN14O18S2/c1-5-40-27-44(102-4)22-23-45(40)41-20-18-39(19-21-41)26-50(62(95)77-48(59(72)92)17-11-14-38-12-7-6-8-13-38)79-63(96)51(29-57(90)91)80-64(97)52(33-85)81-67(100)58(37(2)86)83-68(101)69(3,30-42-15-9-10-16-46(42)70)84-66(99)54-35-104-103-34-53(82-60(93)47(71)28-43-31-73-36-75-43)65(98)78-49(24-25-56(88)89)61(94)74-32-55(87)76-54/h6-10,12-13,15-16,18-23,27,31,36-37,47-54,58,85-86H,5,11,14,17,24-26,28-30,32-35,71H2,1-4H3,(H2,72,92)(H,73,75)(H,74,94)(H,76,87)(H,77,95)(H,78,98)(H,79,96)(H,80,97)(H,81,100)(H,82,93)(H,83,101)(H,84,99)(H,88,89)(H,90,91)/t37-,47+,48+,49+,50+,51+,52+,53+,54+,58+,69+/m1/s1

> <PUBCHEM_IUPAC_INCHIKEY>
KDRCAHUBNIAWGX-CBRLISLCSA-N

> <PUBCHEM_XLOGP3_AA>
-2

> <PUBCHEM_EXACT_MASS>
1482.575

> <PUBCHEM_MOLECULAR_FORMULA>
C69H87FN14O18S2

> <PUBCHEM_MOLECULAR_WEIGHT>
1483.653

> <PUBCHEM_OPENEYE_CAN_SMILES>
CCC1=C(C=CC(=C1)OC)C2=CC=C(C=C2)CC(C(=O)NC(CCCC3=CC=CC=C3)C(=O)N)NC(=O)C(CC(=O)O)NC(=O)C(CO)NC(=O)C(C(C)O)NC(=O)C(C)(CC4=CC=CC=C4F)NC(=O)C5CSSCC(C(=O)NC(C(=O)NCC(=O)N5)CCC(=O)O)NC(=O)C(CC6=CN=CN6)N

> <PUBCHEM_OPENEYE_ISO_SMILES>
CCC1=C(C=CC(=C1)OC)C2=CC=C(C=C2)C[C@@H](C(=O)N[C@@H](CCCC3=CC=CC=C3)C(=O)N)NC(=O)[C@H](CC(=O)O)NC(=O)[C@H](CO)NC(=O)[C@H]([C@@H](C)O)NC(=O)[C@](C)(CC4=CC=CC=C4F)NC(=O)[C@@H]5CSSC[C@@H](C(=O)N[C@H](C(=O)NCC(=O)N5)CCC(=O)O)NC(=O)[C@H](CC6=CN=CN6)N

> <PUBCHEM_CACTVS_TPSA>
564

> <PUBCHEM_MONOISOTOPIC_WEIGHT>
1482.575

> <PUBCHEM_TOTAL_CHARGE>
0

> <PUBCHEM_HEAVY_ATOM_COUNT>
104

> <PUBCHEM_ATOM_DEF_STEREO_COUNT>
11

> <PUBCHEM_ATOM_UDEF_STEREO_COUNT>
0

> <PUBCHEM_BOND_DEF_STEREO_COUNT>
0

> <PUBCHEM_BOND_UDEF_STEREO_COUNT>
0

> <PUBCHEM_ISOTOPIC_ATOM_COUNT>
0

> <PUBCHEM_COMPONENT_COUNT>
1

> <PUBCHEM_CACTVS_TAUTO_COUNT>
998

> <PUBCHEM_COORDINATE_TYPE>
1
5
255

> <PUBCHEM_BONDANNOTATIONS>
36  22  5
40  23  5
48  24  6
52  26  5
51  27  5
53  28  5
70  31  6
85  33  5
34  103  8
34  98  8
35  102  8
35  103  8
41  46  8
41  47  8
44  43  6
46  57  8
47  58  8
42  5  5
57  63  8
58  63  8
66  76  8
66  77  8
68  73  6
76  81  8
77  82  8
78  87  8
78  88  8
79  81  8
79  82  8
84  89  8
84  91  8
87  94  8
88  95  8
89  96  8
91  99  8
94  97  8
95  97  8
96  100  8
98  102  8
99  100  8

$$$$
