118737124
  -OEChem-03161706532D

194199  0     1  0  0  0  0  0999 V2000
   18.8176   -3.2798    0.0000 S   0  0  0  0  0  0  0  0  0  0  0  0
   19.1266   -4.2308    0.0000 S   0  0  0  0  0  0  0  0  0  0  0  0
   19.4967    1.1193    0.0000 F   0  0  0  0  0  0  0  0  0  0  0  0
   17.0975    2.1428    0.0000 O   0  0  0  0  0  0  0  0  0  0  0  0
   15.7306    4.4081    0.0000 O   0  0  0  0  0  0  0  0  0  0  0  0
   15.0760   -0.8427    0.0000 O   0  0  0  0  0  0  0  0  0  0  0  0
   13.5012    2.4008    0.0000 O   0  0  0  0  0  0  0  0  0  0  0  0
   11.3912    3.9969    0.0000 O   0  0  0  0  0  0  0  0  0  0  0  0
   13.7862   -2.7798    0.0000 O   0  0  0  0  0  0  0  0  0  0  0  0
   13.6206    6.0043    0.0000 O   0  0  0  0  0  0  0  0  0  0  0  0
    7.3790    6.2111    0.0000 O   0  0  0  0  0  0  0  0  0  0  0  0
   10.5595    7.9095    0.0000 O   0  0  0  0  0  0  0  0  0  0  0  0
   14.2046   -6.7605    0.0000 O   0  0  0  0  0  0  0  0  0  0  0  0
    8.9538    2.9677    0.0000 O   0  0  0  0  0  0  0  0  0  0  0  0
   18.1198   -7.5927    0.0000 O   0  0  0  0  0  0  0  0  0  0  0  0
   12.9969    8.9388    0.0000 O   0  0  0  0  0  0  0  0  0  0  0  0
   11.3027    8.5786    0.0000 O   0  0  0  0  0  0  0  0  0  0  0  0
   20.4242   -5.4733    0.0000 O   0  0  0  0  0  0  0  0  0  0  0  0
   16.1189  -10.1243    0.0000 O   0  0  0  0  0  0  0  0  0  0  0  0
   14.5366   -9.4198    0.0000 O   0  0  0  0  0  0  0  0  0  0  0  0
    2.2079    9.7125    0.0000 O   0  0  0  0  0  0  0  0  0  0  0  0
   16.7702   -0.4826    0.0000 N   0  0  0  0  0  0  0  0  0  0  0  0
   15.4033    1.7827    0.0000 N   0  0  0  0  0  0  0  0  0  0  0  0
   15.3214   -2.5366    0.0000 N   0  0  0  0  0  0  0  0  0  0  0  0
   14.0364    4.0480    0.0000 N   0  0  0  0  0  0  0  0  0  0  0  0
   11.9264    5.6442    0.0000 N   0  0  0  0  0  0  0  0  0  0  0  0
   10.0243    6.2622    0.0000 N   0  0  0  0  0  0  0  0  0  0  0  0
    8.5380    4.9240    0.0000 N   0  0  0  0  0  0  0  0  0  0  0  0
   14.4478   -5.2253    0.0000 N   0  0  0  0  0  0  0  0  0  0  0  0
   16.7349   -6.8871    0.0000 N   0  0  0  0  0  0  0  0  0  0  0  0
   19.2652   -6.7605    0.0000 N   0  0  0  0  0  0  0  0  0  0  0  0
    7.2596    2.6076    0.0000 N   0  0  0  0  0  0  0  0  0  0  0  0
   20.7515   -8.0988    0.0000 N   0  0  0  0  0  0  0  0  0  0  0  0
   23.6318   -7.2728    0.0000 N   0  0  0  0  0  0  0  0  0  0  0  0
   23.4627   -8.8820    0.0000 N   0  0  0  0  0  0  0  0  0  0  0  0
   16.5623    0.4955    0.0000 C   0  0  1  0  0  0  0  0  0  0  0  0
   17.5404    0.7035    0.0000 C   0  0  0  0  0  0  0  0  0  0  0  0
   16.3543    1.4737    0.0000 C   0  0  0  0  0  0  0  0  0  0  0  0
   15.5841    0.2876    0.0000 C   0  0  0  0  0  0  0  0  0  0  0  0
   15.1954    2.7609    0.0000 C   0  0  1  0  0  0  0  0  0  0  0  0
   16.2349   -2.1299    0.0000 C   0  0  1  0  0  0  0  0  0  0  0  0
   18.2095   -0.0397    0.0000 C   0  0  0  0  0  0  0  0  0  0  0  0
   16.0270   -1.1517    0.0000 C   0  0  0  0  0  0  0  0  0  0  0  0
   15.9385    3.4300    0.0000 C   0  0  1  0  0  0  0  0  0  0  0  0
   17.2349   -2.1299    0.0000 C   0  0  0  0  0  0  0  0  0  0  0  0
   14.2443    3.0699    0.0000 C   0  0  0  0  0  0  0  0  0  0  0  0
   19.1877    0.1682    0.0000 C   0  0  0  0  0  0  0  0  0  0  0  0
   17.9005   -0.9907    0.0000 C   0  0  0  0  0  0  0  0  0  0  0  0
   13.0854    4.3570    0.0000 C   0  0  2  0  0  0  0  0  0  0  0  0
   16.8896    3.1210    0.0000 C   0  0  0  0  0  0  0  0  0  0  0  0
   18.1485   -2.5366    0.0000 C   0  0  0  0  0  0  0  0  0  0  0  0
    9.0732    6.5713    0.0000 C   0  0  1  0  0  0  0  0  0  0  0  0
   19.8568   -0.5749    0.0000 C   0  0  0  0  0  0  0  0  0  0  0  0
   18.5697   -1.7339    0.0000 C   0  0  0  0  0  0  0  0  0  0  0  0
   11.7185    6.6224    0.0000 C   0  0  2  0  0  0  0  0  0  0  0  0
   14.6523   -3.2798    0.0000 C   0  0  0  0  0  0  0  0  0  0  0  0
   12.8774    5.3352    0.0000 C   0  0  0  0  0  0  0  0  0  0  0  0
    7.7948    4.2548    0.0000 C   0  0  1  0  0  0  0  0  0  0  0  0
   12.3422    3.6879    0.0000 C   0  0  0  0  0  0  0  0  0  0  0  0
    8.8653    7.5494    0.0000 C   0  0  0  0  0  0  0  0  0  0  0  0
    6.8438    4.5639    0.0000 C   0  0  0  0  0  0  0  0  0  0  0  0
   19.5478   -1.5260    0.0000 C   0  0  0  0  0  0  0  0  0  0  0  0
   14.3432   -4.2308    0.0000 C   0  0  0  0  0  0  0  0  0  0  0  0
    8.3301    5.9021    0.0000 C   0  0  0  0  0  0  0  0  0  0  0  0
   10.7674    6.9314    0.0000 C   0  0  0  0  0  0  0  0  0  0  0  0
    6.1006    3.8947    0.0000 C   0  0  0  0  0  0  0  0  0  0  0  0
   15.7568   -6.6792    0.0000 C   0  0  1  0  0  0  0  0  0  0  0  0
   12.4616    7.2915    0.0000 C   0  0  0  0  0  0  0  0  0  0  0  0
    7.9142    7.8584    0.0000 C   0  0  0  0  0  0  0  0  0  0  0  0
   18.5221   -6.0914    0.0000 C   0  0  2  0  0  0  0  0  0  0  0  0
    5.1496    4.2038    0.0000 C   0  0  0  0  0  0  0  0  0  0  0  0
   15.3501   -7.5927    0.0000 C   0  0  0  0  0  0  0  0  0  0  0  0
   14.9478   -6.0914    0.0000 C   0  0  0  0  0  0  0  0  0  0  0  0
   19.0221   -5.2253    0.0000 C   0  0  0  0  0  0  0  0  0  0  0  0
    8.0028    3.2767    0.0000 C   0  0  0  0  0  0  0  0  0  0  0  0
   17.7131   -6.6792    0.0000 C   0  0  0  0  0  0  0  0  0  0  0  0
    7.1711    7.1893    0.0000 C   0  0  0  0  0  0  0  0  0  0  0  0
    7.7063    8.8366    0.0000 C   0  0  0  0  0  0  0  0  0  0  0  0
    4.4064    3.5346    0.0000 C   0  0  0  0  0  0  0  0  0  0  0  0
   15.9378   -8.4017    0.0000 C   0  0  0  0  0  0  0  0  0  0  0  0
    6.0121    8.4765    0.0000 C   0  0  0  0  0  0  0  0  0  0  0  0
   12.2537    8.2696    0.0000 C   0  0  0  0  0  0  0  0  0  0  0  0
    6.2200    7.4983    0.0000 C   0  0  0  0  0  0  0  0  0  0  0  0
    6.7553    9.1456    0.0000 C   0  0  0  0  0  0  0  0  0  0  0  0
    5.0611    8.7855    0.0000 C   0  0  0  0  0  0  0  0  0  0  0  0
   20.9594   -7.1206    0.0000 C   0  0  2  0  0  0  0  0  0  0  0  0
   20.2163   -6.4515    0.0000 C   0  0  0  0  0  0  0  0  0  0  0  0
    4.6144    2.5565    0.0000 C   0  0  0  0  0  0  0  0  0  0  0  0
    3.4554    3.8436    0.0000 C   0  0  0  0  0  0  0  0  0  0  0  0
    4.3179    8.1163    0.0000 C   0  0  0  0  0  0  0  0  0  0  0  0
   21.9105   -6.8116    0.0000 C   0  0  0  0  0  0  0  0  0  0  0  0
   15.5311   -9.3153    0.0000 C   0  0  0  0  0  0  0  0  0  0  0  0
    4.8532    9.7636    0.0000 C   0  0  0  0  0  0  0  0  0  0  0  0
    4.5258    7.1382    0.0000 C   0  0  0  0  0  0  0  0  0  0  0  0
    3.8712    1.8873    0.0000 C   0  0  0  0  0  0  0  0  0  0  0  0
    2.7122    3.1745    0.0000 C   0  0  0  0  0  0  0  0  0  0  0  0
    3.3669    8.4254    0.0000 C   0  0  0  0  0  0  0  0  0  0  0  0
   22.6537   -7.4807    0.0000 C   0  0  0  0  0  0  0  0  0  0  0  0
    2.9202    2.1964    0.0000 C   0  0  0  0  0  0  0  0  0  0  0  0
    3.9021   10.0726    0.0000 C   0  0  0  0  0  0  0  0  0  0  0  0
    3.1590    9.4035    0.0000 C   0  0  0  0  0  0  0  0  0  0  0  0
    3.7827    6.4691    0.0000 C   0  0  0  0  0  0  0  0  0  0  0  0
   22.5491   -8.4752    0.0000 C   0  0  0  0  0  0  0  0  0  0  0  0
   24.1318   -8.1388    0.0000 C   0  0  0  0  0  0  0  0  0  0  0  0
    2.0000   10.6907    0.0000 C   0  0  0  0  0  0  0  0  0  0  0  0
   18.0662    1.0320    0.0000 H   0  0  0  0  0  0  0  0  0  0  0  0
   17.3082    1.2783    0.0000 H   0  0  0  0  0  0  0  0  0  0  0  0
   17.3598   -0.6742    0.0000 H   0  0  0  0  0  0  0  0  0  0  0  0
   15.4552    0.8941    0.0000 H   0  0  0  0  0  0  0  0  0  0  0  0
   14.9777    0.1587    0.0000 H   0  0  0  0  0  0  0  0  0  0  0  0
   15.7130   -0.3188    0.0000 H   0  0  0  0  0  0  0  0  0  0  0  0
   14.7346    2.3460    0.0000 H   0  0  0  0  0  0  0  0  0  0  0  0
   14.9425    1.3678    0.0000 H   0  0  0  0  0  0  0  0  0  0  0  0
   15.6825   -1.8484    0.0000 H   0  0  0  0  0  0  0  0  0  0  0  0
   15.3489    3.6216    0.0000 H   0  0  0  0  0  0  0  0  0  0  0  0
   17.6809   -1.6992    0.0000 H   0  0  0  0  0  0  0  0  0  0  0  0
   17.1060   -2.7363    0.0000 H   0  0  0  0  0  0  0  0  0  0  0  0
   14.9570   -2.0350    0.0000 H   0  0  0  0  0  0  0  0  0  0  0  0
   17.2941   -1.1196    0.0000 H   0  0  0  0  0  0  0  0  0  0  0  0
   13.5461    4.7719    0.0000 H   0  0  0  0  0  0  0  0  0  0  0  0
   16.6980    2.5313    0.0000 H   0  0  0  0  0  0  0  0  0  0  0  0
   17.4792    2.9294    0.0000 H   0  0  0  0  0  0  0  0  0  0  0  0
   17.0812    3.7106    0.0000 H   0  0  0  0  0  0  0  0  0  0  0  0
   14.4972    4.4629    0.0000 H   0  0  0  0  0  0  0  0  0  0  0  0
   18.7311   -2.3246    0.0000 H   0  0  0  0  0  0  0  0  0  0  0  0
   17.7841   -3.0382    0.0000 H   0  0  0  0  0  0  0  0  0  0  0  0
    9.2021    5.9648    0.0000 H   0  0  0  0  0  0  0  0  0  0  0  0
   20.4633   -0.4460    0.0000 H   0  0  0  0  0  0  0  0  0  0  0  0
   18.3781   -2.3235    0.0000 H   0  0  0  0  0  0  0  0  0  0  0  0
   12.3081    6.4308    0.0000 H   0  0  0  0  0  0  0  0  0  0  0  0
   16.1914    4.8230    0.0000 H   0  0  0  0  0  0  0  0  0  0  0  0
    8.3845    4.0633    0.0000 H   0  0  0  0  0  0  0  0  0  0  0  0
   12.0511    3.1405    0.0000 H   0  0  0  0  0  0  0  0  0  0  0  0
   12.8308    3.3062    0.0000 H   0  0  0  0  0  0  0  0  0  0  0  0
    9.4849    7.5710    0.0000 H   0  0  0  0  0  0  0  0  0  0  0  0
    8.9516    8.1634    0.0000 H   0  0  0  0  0  0  0  0  0  0  0  0
    7.1349    5.1113    0.0000 H   0  0  0  0  0  0  0  0  0  0  0  0
    6.3552    4.9456    0.0000 H   0  0  0  0  0  0  0  0  0  0  0  0
   19.9627   -1.9867    0.0000 H   0  0  0  0  0  0  0  0  0  0  0  0
   11.4656    5.2294    0.0000 H   0  0  0  0  0  0  0  0  0  0  0  0
   13.8683   -3.8323    0.0000 H   0  0  0  0  0  0  0  0  0  0  0  0
   14.9599   -4.2956    0.0000 H   0  0  0  0  0  0  0  0  0  0  0  0
   10.1532    5.6558    0.0000 H   0  0  0  0  0  0  0  0  0  0  0  0
    5.8096    3.3473    0.0000 H   0  0  0  0  0  0  0  0  0  0  0  0
    6.5892    3.5130    0.0000 H   0  0  0  0  0  0  0  0  0  0  0  0
    9.1276    4.7324    0.0000 H   0  0  0  0  0  0  0  0  0  0  0  0
   16.0383   -7.2316    0.0000 H   0  0  0  0  0  0  0  0  0  0  0  0
   12.7902    6.7657    0.0000 H   0  0  0  0  0  0  0  0  0  0  0  0
   13.0365    7.5237    0.0000 H   0  0  0  0  0  0  0  0  0  0  0  0
   18.4897   -6.7105    0.0000 H   0  0  0  0  0  0  0  0  0  0  0  0
    5.4407    4.7512    0.0000 H   0  0  0  0  0  0  0  0  0  0  0  0
    4.6610    4.5855    0.0000 H   0  0  0  0  0  0  0  0  0  0  0  0
   13.8581   -5.4169    0.0000 H   0  0  0  0  0  0  0  0  0  0  0  0
   14.8361   -7.2460    0.0000 H   0  0  0  0  0  0  0  0  0  0  0  0
   14.9194   -8.0387    0.0000 H   0  0  0  0  0  0  0  0  0  0  0  0
   19.4038   -5.7139    0.0000 H   0  0  0  0  0  0  0  0  0  0  0  0
   18.4324   -5.0338    0.0000 H   0  0  0  0  0  0  0  0  0  0  0  0
   16.7349   -7.5071    0.0000 H   0  0  0  0  0  0  0  0  0  0  0  0
    7.3000    6.5828    0.0000 H   0  0  0  0  0  0  0  0  0  0  0  0
    8.1671    9.2514    0.0000 H   0  0  0  0  0  0  0  0  0  0  0  0
   16.4518   -8.7484    0.0000 H   0  0  0  0  0  0  0  0  0  0  0  0
   16.3685   -7.9557    0.0000 H   0  0  0  0  0  0  0  0  0  0  0  0
   19.1363   -7.3670    0.0000 H   0  0  0  0  0  0  0  0  0  0  0  0
   10.9304    3.5821    0.0000 H   0  0  0  0  0  0  0  0  0  0  0  0
    5.7593    7.0834    0.0000 H   0  0  0  0  0  0  0  0  0  0  0  0
    6.6264    9.7520    0.0000 H   0  0  0  0  0  0  0  0  0  0  0  0
   20.3698   -7.3122    0.0000 H   0  0  0  0  0  0  0  0  0  0  0  0
    5.2040    2.3649    0.0000 H   0  0  0  0  0  0  0  0  0  0  0  0
    3.3265    4.4501    0.0000 H   0  0  0  0  0  0  0  0  0  0  0  0
    7.3885    2.0011    0.0000 H   0  0  0  0  0  0  0  0  0  0  0  0
    6.6700    2.7992    0.0000 H   0  0  0  0  0  0  0  0  0  0  0  0
   22.3991   -6.4299    0.0000 H   0  0  0  0  0  0  0  0  0  0  0  0
   21.6194   -6.2642    0.0000 H   0  0  0  0  0  0  0  0  0  0  0  0
    5.3139   10.1785    0.0000 H   0  0  0  0  0  0  0  0  0  0  0  0
    4.8544    6.6124    0.0000 H   0  0  0  0  0  0  0  0  0  0  0  0
    5.1007    7.3704    0.0000 H   0  0  0  0  0  0  0  0  0  0  0  0
    4.0001    1.2809    0.0000 H   0  0  0  0  0  0  0  0  0  0  0  0
    2.1226    3.3661    0.0000 H   0  0  0  0  0  0  0  0  0  0  0  0
    2.9061    8.0105    0.0000 H   0  0  0  0  0  0  0  0  0  0  0  0
   12.8679    9.5452    0.0000 H   0  0  0  0  0  0  0  0  0  0  0  0
    2.4594    1.7815    0.0000 H   0  0  0  0  0  0  0  0  0  0  0  0
   21.2123   -8.5136    0.0000 H   0  0  0  0  0  0  0  0  0  0  0  0
   20.1619   -8.2904    0.0000 H   0  0  0  0  0  0  0  0  0  0  0  0
    3.7732   10.6791    0.0000 H   0  0  0  0  0  0  0  0  0  0  0  0
    3.3678    6.9298    0.0000 H   0  0  0  0  0  0  0  0  0  0  0  0
    3.3220    6.0542    0.0000 H   0  0  0  0  0  0  0  0  0  0  0  0
    4.1976    6.0083    0.0000 H   0  0  0  0  0  0  0  0  0  0  0  0
   23.8840   -6.7064    0.0000 H   0  0  0  0  0  0  0  0  0  0  0  0
   22.0122   -8.7852    0.0000 H   0  0  0  0  0  0  0  0  0  0  0  0
   15.8667  -10.6907    0.0000 H   0  0  0  0  0  0  0  0  0  0  0  0
   24.7484   -8.2036    0.0000 H   0  0  0  0  0  0  0  0  0  0  0  0
    2.6064   10.8196    0.0000 H   0  0  0  0  0  0  0  0  0  0  0  0
    1.8711   11.2971    0.0000 H   0  0  0  0  0  0  0  0  0  0  0  0
    1.3936   10.5618    0.0000 H   0  0  0  0  0  0  0  0  0  0  0  0
  1  2  1  0  0  0  0
  1 51  1  0  0  0  0
  2 74  1  0  0  0  0
  3 47  1  0  0  0  0
  4 38  2  0  0  0  0
 44  5  1  6  0  0  0
  5131  1  0  0  0  0
  6 43  2  0  0  0  0
  7 46  2  0  0  0  0
  8 59  1  0  0  0  0
  8164  1  0  0  0  0
  9 56  2  0  0  0  0
 10 57  2  0  0  0  0
 11 64  2  0  0  0  0
 12 65  2  0  0  0  0
 13 73  2  0  0  0  0
 14 75  2  0  0  0  0
 15 76  2  0  0  0  0
 16 82  1  0  0  0  0
 16180  1  0  0  0  0
 17 82  2  0  0  0  0
 18 87  2  0  0  0  0
 19 92  1  0  0  0  0
 19190  1  0  0  0  0
 20 92  2  0  0  0  0
 21101  1  0  0  0  0
 21105  1  0  0  0  0
 36 22  1  6  0  0  0
 22 43  1  0  0  0  0
 22108  1  0  0  0  0
 23 38  1  0  0  0  0
 40 23  1  6  0  0  0
 23113  1  0  0  0  0
 24 41  1  0  0  0  0
 24 56  1  0  0  0  0
 24118  1  0  0  0  0
 25 46  1  0  0  0  0
 49 25  1  1  0  0  0
 25124  1  0  0  0  0
 55 26  1  6  0  0  0
 26 57  1  0  0  0  0
 26140  1  0  0  0  0
 52 27  1  6  0  0  0
 27 65  1  0  0  0  0
 27143  1  0  0  0  0
 58 28  1  6  0  0  0
 28 64  1  0  0  0  0
 28146  1  0  0  0  0
 29 63  1  0  0  0  0
 29 73  1  0  0  0  0
 29153  1  0  0  0  0
 30 67  1  0  0  0  0
 30 76  1  0  0  0  0
 30158  1  0  0  0  0
 70 31  1  1  0  0  0
 31 87  1  0  0  0  0
 31163  1  0  0  0  0
 32 75  1  0  0  0  0
 32170  1  0  0  0  0
 32171  1  0  0  0  0
 86 33  1  6  0  0  0
 33182  1  0  0  0  0
 33183  1  0  0  0  0
 34 98  1  0  0  0  0
 34104  1  0  0  0  0
 34188  1  0  0  0  0
 35103  1  0  0  0  0
 35104  2  0  0  0  0
 36 37  1  0  0  0  0
 36 38  1  0  0  0  0
 36 39  1  0  0  0  0
 37 42  1  0  0  0  0
 37106  1  0  0  0  0
 37107  1  0  0  0  0
 39109  1  0  0  0  0
 39110  1  0  0  0  0
 39111  1  0  0  0  0
 40 44  1  0  0  0  0
 40 46  1  0  0  0  0
 40112  1  0  0  0  0
 41 43  1  1  0  0  0
 41 45  1  0  0  0  0
 41114  1  0  0  0  0
 42 47  1  0  0  0  0
 42 48  2  0  0  0  0
 44 50  1  0  0  0  0
 44115  1  0  0  0  0
 45 51  1  0  0  0  0
 45116  1  0  0  0  0
 45117  1  0  0  0  0
 47 53  2  0  0  0  0
 48 54  1  0  0  0  0
 48119  1  0  0  0  0
 49 57  1  0  0  0  0
 49 59  1  0  0  0  0
 49120  1  0  0  0  0
 50121  1  0  0  0  0
 50122  1  0  0  0  0
 50123  1  0  0  0  0
 51125  1  0  0  0  0
 51126  1  0  0  0  0
 52 60  1  0  0  0  0
 52 64  1  0  0  0  0
 52127  1  0  0  0  0
 53 62  1  0  0  0  0
 53128  1  0  0  0  0
 54 62  2  0  0  0  0
 54129  1  0  0  0  0
 55 65  1  0  0  0  0
 55 68  1  0  0  0  0
 55130  1  0  0  0  0
 56 63  1  0  0  0  0
 58 61  1  0  0  0  0
 58 75  1  0  0  0  0
 58132  1  0  0  0  0
 59133  1  0  0  0  0
 59134  1  0  0  0  0
 60 69  1  0  0  0  0
 60135  1  0  0  0  0
 60136  1  0  0  0  0
 61 66  1  0  0  0  0
 61137  1  0  0  0  0
 61138  1  0  0  0  0
 62139  1  0  0  0  0
 63141  1  0  0  0  0
 63142  1  0  0  0  0
 66 71  1  0  0  0  0
 66144  1  0  0  0  0
 66145  1  0  0  0  0
 67 72  1  1  0  0  0
 67 73  1  0  0  0  0
 67147  1  0  0  0  0
 68 82  1  0  0  0  0
 68148  1  0  0  0  0
 68149  1  0  0  0  0
 69 77  2  0  0  0  0
 69 78  1  0  0  0  0
 70 74  1  0  0  0  0
 70 76  1  0  0  0  0
 70150  1  0  0  0  0
 71 79  1  0  0  0  0
 71151  1  0  0  0  0
 71152  1  0  0  0  0
 72 80  1  0  0  0  0
 72154  1  0  0  0  0
 72155  1  0  0  0  0
 74156  1  0  0  0  0
 74157  1  0  0  0  0
 77 83  1  0  0  0  0
 77159  1  0  0  0  0
 78 84  2  0  0  0  0
 78160  1  0  0  0  0
 79 88  2  0  0  0  0
 79 89  1  0  0  0  0
 80 92  1  0  0  0  0
 80161  1  0  0  0  0
 80162  1  0  0  0  0
 81 83  2  0  0  0  0
 81 84  1  0  0  0  0
 81 85  1  0  0  0  0
 83165  1  0  0  0  0
 84166  1  0  0  0  0
 85 90  2  0  0  0  0
 85 93  1  0  0  0  0
 86 87  1  0  0  0  0
 86 91  1  0  0  0  0
 86167  1  0  0  0  0
 88 95  1  0  0  0  0
 88168  1  0  0  0  0
 89 96  2  0  0  0  0
 89169  1  0  0  0  0
 90 94  1  0  0  0  0
 90 97  1  0  0  0  0
 91 98  1  0  0  0  0
 91172  1  0  0  0  0
 91173  1  0  0  0  0
 93100  2  0  0  0  0
 93174  1  0  0  0  0
 94102  1  0  0  0  0
 94175  1  0  0  0  0
 94176  1  0  0  0  0
 95 99  2  0  0  0  0
 95177  1  0  0  0  0
 96 99  1  0  0  0  0
 96178  1  0  0  0  0
 97101  2  0  0  0  0
 97179  1  0  0  0  0
 98103  2  0  0  0  0
 99181  1  0  0  0  0
100101  1  0  0  0  0
100184  1  0  0  0  0
102185  1  0  0  0  0
102186  1  0  0  0  0
102187  1  0  0  0  0
103189  1  0  0  0  0
104191  1  0  0  0  0
105192  1  0  0  0  0
105193  1  0  0  0  0
105194  1  0  0  0  0
M  END
> <PUBCHEM_COMPOUND_CID>
118737124

> <PUBCHEM_COMPOUND_CANONICALIZED>
0

> <PUBCHEM_CACTVS_COMPLEXITY>
2940

> <PUBCHEM_CACTVS_HBOND_ACCEPTOR>
23

> <PUBCHEM_CACTVS_HBOND_DONOR>
17

> <PUBCHEM_CACTVS_ROTATABLE_BOND>
35

> <PUBCHEM_CACTVS_SUBSKEYS>
AAADcfB//wBgAAAAAAAAAAAAAAAAAWAAAAAwYMGAAAAAAAAB1AAAHwQQCAAADLzl3g6/npbJlgCoAzX3fAACiC2xMqAJ2YG+eIiOfj7E+TuUcCAu9hPY6Ce/3/KO4AABAAAQAADAAAIAACAAAAAAAAAAAA==

> <PUBCHEM_IUPAC_INCHI>
InChI=1S/C70H89FN14O18S2/c1-5-41-29-45(103-4)22-23-46(41)42-20-18-40(19-21-42)28-52(63(96)78-49(60(73)93)17-11-14-39-12-7-6-8-13-39)80-64(97)53(31-58(91)92)81-65(98)54(35-86)82-68(101)59(38(2)87)84-69(102)70(3,32-43-15-9-10-16-47(43)71)85-67(100)51-26-27-104-105-36-55(83-61(94)48(72)30-44-33-74-37-76-44)66(99)79-50(24-25-57(89)90)62(95)75-34-56(88)77-51/h6-10,12-13,15-16,18-23,29,33,37-38,48-55,59,86-87H,5,11,14,17,24-28,30-32,34-36,72H2,1-4H3,(H2,73,93)(H,74,76)(H,75,95)(H,77,88)(H,78,96)(H,79,99)(H,80,97)(H,81,98)(H,82,101)(H,83,94)(H,84,102)(H,85,100)(H,89,90)(H,91,92)/t38-,48+,49+,50+,51-,52+,53+,54+,55-,59+,70+/m1/s1

> <PUBCHEM_IUPAC_INCHIKEY>
RUKQSCLVTYXPKC-CRPFYVNLSA-N

> <PUBCHEM_XLOGP3_AA>
-1.6

> <PUBCHEM_EXACT_MASS>
1496.59

> <PUBCHEM_MOLECULAR_FORMULA>
C70H89FN14O18S2

> <PUBCHEM_MOLECULAR_WEIGHT>
1497.68

> <PUBCHEM_OPENEYE_CAN_SMILES>
CCC1=C(C=CC(=C1)OC)C2=CC=C(C=C2)CC(C(=O)NC(CCCC3=CC=CC=C3)C(=O)N)NC(=O)C(CC(=O)O)NC(=O)C(CO)NC(=O)C(C(C)O)NC(=O)C(C)(CC4=CC=CC=C4F)NC(=O)C5CCSSCC(C(=O)NC(C(=O)NCC(=O)N5)CCC(=O)O)NC(=O)C(CC6=CN=CN6)N

> <PUBCHEM_OPENEYE_ISO_SMILES>
CCC1=C(C=CC(=C1)OC)C2=CC=C(C=C2)C[C@@H](C(=O)N[C@@H](CCCC3=CC=CC=C3)C(=O)N)NC(=O)[C@H](CC(=O)O)NC(=O)[C@H](CO)NC(=O)[C@H]([C@@H](C)O)NC(=O)[C@](C)(CC4=CC=CC=C4F)NC(=O)[C@H]5CCSSC[C@H](C(=O)N[C@H](C(=O)NCC(=O)N5)CCC(=O)O)NC(=O)[C@H](CC6=CN=CN6)N

> <PUBCHEM_CACTVS_TPSA>
564

> <PUBCHEM_MONOISOTOPIC_WEIGHT>
1496.59

> <PUBCHEM_TOTAL_CHARGE>
0

> <PUBCHEM_HEAVY_ATOM_COUNT>
105

> <PUBCHEM_ATOM_DEF_STEREO_COUNT>
11

> <PUBCHEM_ATOM_UDEF_STEREO_COUNT>
0

> <PUBCHEM_BOND_DEF_STEREO_COUNT>
0

> <PUBCHEM_BOND_UDEF_STEREO_COUNT>
0

> <PUBCHEM_ISOTOPIC_ATOM_COUNT>
0

> <PUBCHEM_COMPONENT_COUNT>
1

> <PUBCHEM_CACTVS_TAUTO_COUNT>
998

> <PUBCHEM_COORDINATE_TYPE>
1
5
255

> <PUBCHEM_BONDANNOTATIONS>
100  101  8
36  22  6
40  23  6
49  25  5
55  26  6
52  27  6
58  28  6
70  31  5
86  33  6
34  104  8
34  98  8
35  103  8
35  104  8
41  43  5
42  47  8
42  48  8
47  53  8
48  54  8
44  5  6
53  62  8
54  62  8
67  72  5
69  77  8
69  78  8
77  83  8
78  84  8
79  88  8
79  89  8
81  83  8
81  84  8
85  90  8
85  93  8
88  95  8
89  96  8
90  97  8
93  100  8
95  99  8
96  99  8
97  101  8
98  103  8

$$$$
