67209282
  -OEChem-03161710073D

 54 58  0     1  0  0  0  0  0999 V2000
   -1.1221   -1.8987    0.0214 O   0  0  0  0  0  0  0  0  0  0  0  0
    1.2528   -3.1657    0.0654 O   0  0  0  0  0  0  0  0  0  0  0  0
   -5.1589    2.1925   -0.4599 N   0  0  0  0  0  0  0  0  0  0  0  0
   -3.8418    1.9245   -0.5194 N   0  0  0  0  0  0  0  0  0  0  0  0
   -2.3107    0.0682   -0.2735 N   0  0  0  0  0  0  0  0  0  0  0  0
    2.4074   -1.2046   -0.4076 N   0  0  0  0  0  0  0  0  0  0  0  0
    7.5848    1.9452    1.0574 N   0  0  0  0  0  0  0  0  0  0  0  0
    6.4754   -0.1166    1.6241 N   0  0  0  0  0  0  0  0  0  0  0  0
   -7.2129    0.8149   -0.0035 C   0  0  0  0  0  0  0  0  0  0  0  0
   -7.7973    0.8797    1.3772 C   0  0  0  0  0  0  0  0  0  0  0  0
   -8.0472    1.9938    0.4035 C   0  0  0  0  0  0  0  0  0  0  0  0
   -5.7049    1.0064   -0.1724 C   0  0  0  0  0  0  0  0  0  0  0  0
   -4.7472   -0.0195   -0.0464 C   0  0  0  0  0  0  0  0  0  0  0  0
   -3.5380    0.6170   -0.2794 C   0  0  0  0  0  0  0  0  0  0  0  0
   -4.7238   -1.3922    0.2295 C   0  0  0  0  0  0  0  0  0  0  0  0
   -3.4771   -2.0180    0.2496 C   0  0  0  0  0  0  0  0  0  0  0  0
   -2.9120    2.9886   -0.8166 C   0  0  0  0  0  0  0  0  0  0  0  0
   -5.9490   -2.2022    0.4976 C   0  0  0  0  0  0  0  0  0  0  0  0
   -2.3390   -1.2590   -0.0016 C   0  0  0  0  0  0  0  0  0  0  0  0
    3.7452   -1.7744   -0.4024 C   0  0  2  0  0  0  0  0  0  0  0  0
    0.0231   -1.1141   -0.2355 C   0  0  0  0  0  0  0  0  0  0  0  0
    4.7792   -0.7802   -0.0033 C   0  0  0  0  0  0  0  0  0  0  0  0
    1.2764   -1.9608   -0.1710 C   0  0  0  0  0  0  0  0  0  0  0  0
    5.0254    0.3409   -0.7939 C   0  0  0  0  0  0  0  0  0  0  0  0
    4.0291   -2.4359   -1.7603 C   0  0  0  0  0  0  0  0  0  0  0  0
    6.0123    1.2424   -0.3639 C   0  0  0  0  0  0  0  0  0  0  0  0
    6.6740    0.9487    0.8248 C   0  0  0  0  0  0  0  0  0  0  0  0
    5.5152   -0.9506    1.1616 C   0  0  0  0  0  0  0  0  0  0  0  0
    6.5579    2.4607   -0.8480 C   0  0  0  0  0  0  0  0  0  0  0  0
    7.5234    2.8692    0.0466 C   0  0  0  0  0  0  0  0  0  0  0  0
   -7.6694    0.1267   -0.7069 H   0  0  0  0  0  0  0  0  0  0  0  0
   -9.0413    2.0770   -0.0202 H   0  0  0  0  0  0  0  0  0  0  0  0
   -7.5767    2.9472    0.6098 H   0  0  0  0  0  0  0  0  0  0  0  0
   -7.1413    1.0815    2.2154 H   0  0  0  0  0  0  0  0  0  0  0  0
   -8.6216    0.2153    1.6066 H   0  0  0  0  0  0  0  0  0  0  0  0
   -3.3878   -3.0805    0.4572 H   0  0  0  0  0  0  0  0  0  0  0  0
   -3.1628    3.3978   -1.7985 H   0  0  0  0  0  0  0  0  0  0  0  0
   -3.0125    3.7560   -0.0448 H   0  0  0  0  0  0  0  0  0  0  0  0
   -1.8902    2.6031   -0.8254 H   0  0  0  0  0  0  0  0  0  0  0  0
   -6.4428   -1.8504    1.4085 H   0  0  0  0  0  0  0  0  0  0  0  0
   -6.6464   -2.1270   -0.3425 H   0  0  0  0  0  0  0  0  0  0  0  0
   -5.7161   -3.2635    0.6353 H   0  0  0  0  0  0  0  0  0  0  0  0
    3.7343   -2.5871    0.3363 H   0  0  0  0  0  0  0  0  0  0  0  0
    0.1169   -0.3197    0.5157 H   0  0  0  0  0  0  0  0  0  0  0  0
   -0.0329   -0.6762   -1.2401 H   0  0  0  0  0  0  0  0  0  0  0  0
    2.3015   -0.2185   -0.6299 H   0  0  0  0  0  0  0  0  0  0  0  0
    4.4765    0.5241   -1.7121 H   0  0  0  0  0  0  0  0  0  0  0  0
    3.3049   -3.2315   -1.9672 H   0  0  0  0  0  0  0  0  0  0  0  0
    5.0310   -2.8787   -1.7777 H   0  0  0  0  0  0  0  0  0  0  0  0
    3.9634   -1.7165   -2.5843 H   0  0  0  0  0  0  0  0  0  0  0  0
    5.3472   -1.8143    1.8007 H   0  0  0  0  0  0  0  0  0  0  0  0
    6.2788    2.9854   -1.7514 H   0  0  0  0  0  0  0  0  0  0  0  0
    8.2069    1.9910    1.8524 H   0  0  0  0  0  0  0  0  0  0  0  0
    8.1710    3.7346    0.0536 H   0  0  0  0  0  0  0  0  0  0  0  0
  1 19  1  0  0  0  0
  1 21  1  0  0  0  0
  2 23  2  0  0  0  0
  3  4  1  0  0  0  0
  3 12  2  0  0  0  0
  4 14  1  0  0  0  0
  4 17  1  0  0  0  0
  5 14  1  0  0  0  0
  5 19  2  0  0  0  0
  6 20  1  0  0  0  0
  6 23  1  0  0  0  0
  6 46  1  0  0  0  0
  7 27  1  0  0  0  0
  7 30  1  0  0  0  0
  7 53  1  0  0  0  0
  8 27  2  0  0  0  0
  8 28  1  0  0  0  0
  9 10  1  0  0  0  0
  9 11  1  0  0  0  0
  9 12  1  0  0  0  0
  9 31  1  0  0  0  0
 10 11  1  0  0  0  0
 10 34  1  0  0  0  0
 10 35  1  0  0  0  0
 11 32  1  0  0  0  0
 11 33  1  0  0  0  0
 12 13  1  0  0  0  0
 13 14  2  0  0  0  0
 13 15  1  0  0  0  0
 15 16  2  0  0  0  0
 15 18  1  0  0  0  0
 16 19  1  0  0  0  0
 16 36  1  0  0  0  0
 17 37  1  0  0  0  0
 17 38  1  0  0  0  0
 17 39  1  0  0  0  0
 18 40  1  0  0  0  0
 18 41  1  0  0  0  0
 18 42  1  0  0  0  0
 20 22  1  0  0  0  0
 20 25  1  0  0  0  0
 20 43  1  0  0  0  0
 21 23  1  0  0  0  0
 21 44  1  0  0  0  0
 21 45  1  0  0  0  0
 22 24  1  0  0  0  0
 22 28  2  0  0  0  0
 24 26  2  0  0  0  0
 24 47  1  0  0  0  0
 25 48  1  0  0  0  0
 25 49  1  0  0  0  0
 25 50  1  0  0  0  0
 26 27  1  0  0  0  0
 26 29  1  0  0  0  0
 28 51  1  0  0  0  0
 29 30  2  0  0  0  0
 29 52  1  0  0  0  0
 30 54  1  0  0  0  0
M  END
> <PUBCHEM_COMPOUND_CID>
67209282

> <PUBCHEM_CONFORMER_RMSD>
1.2

> <PUBCHEM_CONFORMER_DIVERSEORDER>
1
3
152
36
119
24
165
21
46
128
2
31
130
122
133
58
95
61
158
81
57
94
146
111
49
5
47
14
72
48
29
121
110
161
64
53
103
160
112
54
109
23
33
98
149
113
157
159
68
163
30
55
32
18
92
145
117
70
84
96
4
39
142
102
6
8
164
73
162
38
150
155
90
99
138
137
126
87
22
51
26
7
93
41
141
115
35
139
86
69
135
19
12
60
134
91
11
82
127
166
27
120
71
43
25
40
131
123
9
136
116
52
65
79
147
15
28
67
101
76
16
83
50
77
148
124
56
89
140
156
37
78
125
106
132
17
13
63
97
62
129
153
143
34
107
80
10
66
20
42
167
108
104
88
105
154
75
151
45
59
44
74
144
118
100
114
85

> <PUBCHEM_MMFF94_PARTIAL_CHARGES>
39
1 -0.36
10 -0.2
11 -0.2
12 0.2
14 0.11
15 -0.14
16 -0.15
17 0.26
18 0.14
19 0.39
2 -0.57
20 0.44
21 0.34
22 -0.14
23 0.57
24 -0.15
27 0.11
28 0.16
29 -0.15
3 -0.71
30 -0.3
31 0.1
32 0.1
33 0.1
34 0.1
35 0.1
36 0.15
4 0.31
46 0.37
47 0.15
5 -0.57
51 0.15
52 0.15
53 0.27
54 0.15
6 -0.73
7 0.03
8 -0.57
9 -0.01

> <PUBCHEM_EFFECTIVE_ROTOR_COUNT>
7.6

> <PUBCHEM_PHARMACOPHORE_FEATURES>
9
1 2 acceptor
1 3 acceptor
1 6 donor
1 7 donor
3 7 8 27 cation
5 3 4 12 13 14 rings
5 7 26 27 29 30 rings
6 5 13 14 15 16 19 rings
6 8 22 24 26 27 28 rings

> <PUBCHEM_HEAVY_ATOM_COUNT>
30

> <PUBCHEM_ATOM_DEF_STEREO_COUNT>
0

> <PUBCHEM_ATOM_UDEF_STEREO_COUNT>
1

> <PUBCHEM_BOND_DEF_STEREO_COUNT>
0

> <PUBCHEM_BOND_UDEF_STEREO_COUNT>
0

> <PUBCHEM_ISOTOPIC_ATOM_COUNT>
0

> <PUBCHEM_COMPONENT_COUNT>
1

> <PUBCHEM_CACTVS_TAUTO_COUNT>
4

> <PUBCHEM_CONFORMER_ID>
0401884200000001

> <PUBCHEM_MMFF94_ENERGY>
61.3968

> <PUBCHEM_FEATURE_SELFOVERLAP>
45.895

> <PUBCHEM_SHAPE_FINGERPRINT>
10 15 18186524297578462985
10554248 39 17274547512046391166
10835480 77 18342739615560861807
10930396 42 17385722505071095697
10939801 23 18189055455768491348
11409948 8 18262248798505009203
125118 31 18412265034351507970
12539765 74 17631458874043500479
12838862 33 18114454567102569589
12895837 130 18342737455361292687
13911987 19 17203894058781512247
14294032 229 17987234606994423310
14565420 104 18260828172772407562
14617042 71 18343026562869798649
14840074 17 16056881329445821788
15183329 4 17989209252288539592
15419008 145 18042107814281071336
1577012 14 18408038533139956742
16126227 98 18341897385854825531
16989713 51 17344619568879689287
16992752 21 17987788761582758031
18393751 57 18259985955450093171
18608769 82 18410855486541498579
19302320 297 18333452067228553108
20058555 10 18410854365334072700
20105231 36 12031782596459699445
20982279 24 12175327164008342605
21130935 74 18260831488118304387
21344244 78 15357698574661848238
21585481 104 14261360149842812114
23569917 315 9799107679808070461
23569943 247 9438865866386470516
23576562 1 15840970287688462705
24771293 8 18335139838360338612
2748736 6 18411692188999223364
34797466 226 18130511825201329079
3663271 9 17967808375519955442
3918712 181 18412259549710621072
4073 2 18335143106989440171
4107672 100 12247418786133152987
44249763 50 17702932773246140582
44317340 157 17988926639493823830
465052 167 11097850784038956074
504579 68 13902189274639855883
5104073 3 18041279872354071570
5109719 28 18409739455841871771
5219985 13 18342454859577875366
5470011 282 12751229350875556664
5718773 13 8718831981065425210
59682541 52 16271938086758191742

> <PUBCHEM_SHAPE_MULTIPOLES>
575.76
26.93
3.48
1.07
4.88
0.43
0.09
18.9
6.28
1.24
-0.59
1.22
-0.03
0.97

> <PUBCHEM_SHAPE_SELFOVERLAP>
1262.963

> <PUBCHEM_SHAPE_VOLUME>
311.7

> <PUBCHEM_COORDINATE_TYPE>
2
5
10

$$$$
