16127648
  -OEChem-03161710252D

128129  0     1  0  0  0  0  0999 V2000
   10.1725    0.6490    0.0000 O   0  0  0  0  0  0  0  0  0  0  0  0
    8.9282    0.0950    0.0000 O   0  0  0  0  0  0  0  0  0  0  0  0
   13.7689    0.9069    0.0000 O   0  0  0  0  0  0  0  0  0  0  0  0
    8.0622    0.5950    0.0000 O   0  0  0  0  0  0  0  0  0  0  0  0
    4.5981    1.5950    0.0000 O   0  0  0  0  0  0  0  0  0  0  0  0
    3.7320    5.0950    0.0000 O   0  0  0  0  0  0  0  0  0  0  0  0
    5.4641    5.0950    0.0000 O   0  0  0  0  0  0  0  0  0  0  0  0
    6.3301   -5.4050    0.0000 O   0  0  0  0  0  0  0  0  0  0  0  0
   10.7078   -0.9983    0.0000 N   0  0  0  0  0  0  0  0  0  0  0  0
    8.0622   -1.4050    0.0000 N   0  0  0  0  0  0  0  0  0  0  0  0
   17.6925   -1.4606    0.0000 N   0  3  0  0  0  0  0  0  0  0  0  0
   12.6099   -0.3802    0.0000 N   0  0  0  0  0  0  0  0  0  0  0  0
    6.3301    0.5950    0.0000 N   0  0  0  0  0  0  0  0  0  0  0  0
    5.4641    3.0950    0.0000 N   0  0  0  0  0  0  0  0  0  0  0  0
   14.1847    2.8632    0.0000 N   0  0  0  0  0  0  0  0  0  0  0  0
   15.3436    4.1504    0.0000 N   0  0  0  0  0  0  0  0  0  0  0  0
   13.6494    4.5105    0.0000 N   0  0  0  0  0  0  0  0  0  0  0  0
    9.7942   -1.4050    0.0000 C   0  0  1  0  0  0  0  0  0  0  0  0
    9.8988   -2.3995    0.0000 C   0  0  0  0  0  0  0  0  0  0  0  0
   10.8769   -2.6074    0.0000 C   0  0  0  0  0  0  0  0  0  0  0  0
   11.3769   -1.7414    0.0000 C   0  0  0  0  0  0  0  0  0  0  0  0
   10.9157   -0.0201    0.0000 C   0  0  0  0  0  0  0  0  0  0  0  0
   11.8667    0.2889    0.0000 C   0  0  2  0  0  0  0  0  0  0  0  0
    8.9282   -0.9050    0.0000 C   0  0  0  0  0  0  0  0  0  0  0  0
   12.0747    1.2670    0.0000 C   0  0  0  0  0  0  0  0  0  0  0  0
    7.1962    2.0950    0.0000 C   0  0  0  0  0  0  0  0  0  0  0  0
    7.1962   -0.9050    0.0000 C   0  0  2  0  0  0  0  0  0  0  0  0
    6.3301    1.5950    0.0000 C   0  0  1  0  0  0  0  0  0  0  0  0
   14.3041   -0.7403    0.0000 C   0  0  1  0  0  0  0  0  0  0  0  0
   16.9493   -0.7914    0.0000 C   0  0  0  0  0  0  0  0  0  0  0  0
   15.2551   -0.4313    0.0000 C   0  0  0  0  0  0  0  0  0  0  0  0
   15.9983   -1.1005    0.0000 C   0  0  0  0  0  0  0  0  0  0  0  0
   13.5609   -0.0712    0.0000 C   0  0  0  0  0  0  0  0  0  0  0  0
   13.0257    1.5761    0.0000 C   0  0  0  0  0  0  0  0  0  0  0  0
    7.1962    0.0950    0.0000 C   0  0  0  0  0  0  0  0  0  0  0  0
    6.3301   -1.4050    0.0000 C   0  0  0  0  0  0  0  0  0  0  0  0
    8.0622    2.5950    0.0000 C   0  0  0  0  0  0  0  0  0  0  0  0
    6.6962    2.9610    0.0000 C   0  0  0  0  0  0  0  0  0  0  0  0
    7.6962    1.2290    0.0000 C   0  0  0  0  0  0  0  0  0  0  0  0
   18.4356   -2.1297    0.0000 C   0  0  0  0  0  0  0  0  0  0  0  0
   18.3616   -0.7174    0.0000 C   0  0  0  0  0  0  0  0  0  0  0  0
   17.0234   -2.2037    0.0000 C   0  0  0  0  0  0  0  0  0  0  0  0
    5.4641    2.0950    0.0000 C   0  0  0  0  0  0  0  0  0  0  0  0
   14.0962   -1.7185    0.0000 C   0  0  0  0  0  0  0  0  0  0  0  0
   13.2336    2.5542    0.0000 C   0  0  0  0  0  0  0  0  0  0  0  0
    6.3301   -2.4050    0.0000 C   0  0  0  0  0  0  0  0  0  0  0  0
    4.5981    3.5950    0.0000 C   0  0  1  0  0  0  0  0  0  0  0  0
    3.7320    3.0950    0.0000 C   0  0  0  0  0  0  0  0  0  0  0  0
    2.8660    3.5950    0.0000 C   0  0  0  0  0  0  0  0  0  0  0  0
    5.4641   -2.9050    0.0000 C   0  0  0  0  0  0  0  0  0  0  0  0
    7.1962   -2.9050    0.0000 C   0  0  0  0  0  0  0  0  0  0  0  0
    4.5981    4.5950    0.0000 C   0  0  0  0  0  0  0  0  0  0  0  0
    2.8660    4.5950    0.0000 C   0  0  0  0  0  0  0  0  0  0  0  0
    2.0000    3.0950    0.0000 C   0  0  0  0  0  0  0  0  0  0  0  0
    5.4641   -3.9050    0.0000 C   0  0  0  0  0  0  0  0  0  0  0  0
    7.1962   -3.9050    0.0000 C   0  0  0  0  0  0  0  0  0  0  0  0
    6.3301   -4.4050    0.0000 C   0  0  0  0  0  0  0  0  0  0  0  0
   14.3926    3.8414    0.0000 C   0  0  0  0  0  0  0  0  0  0  0  0
    9.8267   -0.7859    0.0000 H   0  0  0  0  0  0  0  0  0  0  0  0
    9.2788   -2.3995    0.0000 H   0  0  0  0  0  0  0  0  0  0  0  0
    9.8340   -3.0161    0.0000 H   0  0  0  0  0  0  0  0  0  0  0  0
   10.6853   -3.1971    0.0000 H   0  0  0  0  0  0  0  0  0  0  0  0
   11.4433   -2.8596    0.0000 H   0  0  0  0  0  0  0  0  0  0  0  0
   11.8785   -2.1058    0.0000 H   0  0  0  0  0  0  0  0  0  0  0  0
   11.7918   -1.2807    0.0000 H   0  0  0  0  0  0  0  0  0  0  0  0
   11.7378   -0.3176    0.0000 H   0  0  0  0  0  0  0  0  0  0  0  0
   11.9884    1.8810    0.0000 H   0  0  0  0  0  0  0  0  0  0  0  0
   11.4550    1.2887    0.0000 H   0  0  0  0  0  0  0  0  0  0  0  0
    7.7331   -0.5950    0.0000 H   0  0  0  0  0  0  0  0  0  0  0  0
    8.0622   -2.0250    0.0000 H   0  0  0  0  0  0  0  0  0  0  0  0
    6.8671    1.2850    0.0000 H   0  0  0  0  0  0  0  0  0  0  0  0
   13.7144   -0.9319    0.0000 H   0  0  0  0  0  0  0  0  0  0  0  0
   12.4810   -0.9867    0.0000 H   0  0  0  0  0  0  0  0  0  0  0  0
   17.4379   -0.4097    0.0000 H   0  0  0  0  0  0  0  0  0  0  0  0
   16.6583   -0.2440    0.0000 H   0  0  0  0  0  0  0  0  0  0  0  0
   15.7437   -0.0496    0.0000 H   0  0  0  0  0  0  0  0  0  0  0  0
   14.9641    0.1161    0.0000 H   0  0  0  0  0  0  0  0  0  0  0  0
   15.5097   -1.4822    0.0000 H   0  0  0  0  0  0  0  0  0  0  0  0
   16.2894   -1.6479    0.0000 H   0  0  0  0  0  0  0  0  0  0  0  0
   13.1120    0.9621    0.0000 H   0  0  0  0  0  0  0  0  0  0  0  0
   13.6453    1.5544    0.0000 H   0  0  0  0  0  0  0  0  0  0  0  0
    6.1181   -0.8224    0.0000 H   0  0  0  0  0  0  0  0  0  0  0  0
    5.7196   -1.5127    0.0000 H   0  0  0  0  0  0  0  0  0  0  0  0
    5.7932    0.2850    0.0000 H   0  0  0  0  0  0  0  0  0  0  0  0
    7.1592    0.9190    0.0000 H   0  0  0  0  0  0  0  0  0  0  0  0
    8.0062    0.6920    0.0000 H   0  0  0  0  0  0  0  0  0  0  0  0
    8.2331    1.5390    0.0000 H   0  0  0  0  0  0  0  0  0  0  0  0
    7.2331    3.2710    0.0000 H   0  0  0  0  0  0  0  0  0  0  0  0
    6.3862    3.4980    0.0000 H   0  0  0  0  0  0  0  0  0  0  0  0
    6.1592    2.6510    0.0000 H   0  0  0  0  0  0  0  0  0  0  0  0
    8.3722    2.0581    0.0000 H   0  0  0  0  0  0  0  0  0  0  0  0
    8.5991    2.9050    0.0000 H   0  0  0  0  0  0  0  0  0  0  0  0
    7.7522    3.1319    0.0000 H   0  0  0  0  0  0  0  0  0  0  0  0
   18.0208   -2.5904    0.0000 H   0  0  0  0  0  0  0  0  0  0  0  0
   18.8964   -2.5446    0.0000 H   0  0  0  0  0  0  0  0  0  0  0  0
   18.8505   -1.6690    0.0000 H   0  0  0  0  0  0  0  0  0  0  0  0
   18.8224   -1.1323    0.0000 H   0  0  0  0  0  0  0  0  0  0  0  0
   18.7765   -0.2567    0.0000 H   0  0  0  0  0  0  0  0  0  0  0  0
   17.9009   -0.3026    0.0000 H   0  0  0  0  0  0  0  0  0  0  0  0
   16.5626   -1.7888    0.0000 H   0  0  0  0  0  0  0  0  0  0  0  0
   16.6085   -2.6645    0.0000 H   0  0  0  0  0  0  0  0  0  0  0  0
   17.4841   -2.6186    0.0000 H   0  0  0  0  0  0  0  0  0  0  0  0
   13.4897   -1.5896    0.0000 H   0  0  0  0  0  0  0  0  0  0  0  0
   13.9673   -2.3249    0.0000 H   0  0  0  0  0  0  0  0  0  0  0  0
   14.7026   -1.8474    0.0000 H   0  0  0  0  0  0  0  0  0  0  0  0
   13.1473    3.1682    0.0000 H   0  0  0  0  0  0  0  0  0  0  0  0
   12.6140    2.5758    0.0000 H   0  0  0  0  0  0  0  0  0  0  0  0
    6.0010    3.4050    0.0000 H   0  0  0  0  0  0  0  0  0  0  0  0
    4.5981    2.9750    0.0000 H   0  0  0  0  0  0  0  0  0  0  0  0
    3.3335    2.6200    0.0000 H   0  0  0  0  0  0  0  0  0  0  0  0
    4.1306    2.6200    0.0000 H   0  0  0  0  0  0  0  0  0  0  0  0
    2.8660    2.9750    0.0000 H   0  0  0  0  0  0  0  0  0  0  0  0
    4.9272   -2.5950    0.0000 H   0  0  0  0  0  0  0  0  0  0  0  0
    7.7331   -2.5950    0.0000 H   0  0  0  0  0  0  0  0  0  0  0  0
    1.6900    3.6319    0.0000 H   0  0  0  0  0  0  0  0  0  0  0  0
    1.4631    2.7850    0.0000 H   0  0  0  0  0  0  0  0  0  0  0  0
    2.3100    2.5581    0.0000 H   0  0  0  0  0  0  0  0  0  0  0  0
    3.4860    4.5950    0.0000 H   0  0  0  0  0  0  0  0  0  0  0  0
    2.8660    5.2150    0.0000 H   0  0  0  0  0  0  0  0  0  0  0  0
    2.2460    4.5950    0.0000 H   0  0  0  0  0  0  0  0  0  0  0  0
    4.9272   -4.2150    0.0000 H   0  0  0  0  0  0  0  0  0  0  0  0
    7.7331   -4.2150    0.0000 H   0  0  0  0  0  0  0  0  0  0  0  0
    3.7320    5.7150    0.0000 H   0  0  0  0  0  0  0  0  0  0  0  0
   15.4726    4.7568    0.0000 H   0  0  0  0  0  0  0  0  0  0  0  0
   15.8044    3.7355    0.0000 H   0  0  0  0  0  0  0  0  0  0  0  0
   13.7784    5.1170    0.0000 H   0  0  0  0  0  0  0  0  0  0  0  0
   13.0598    4.3189    0.0000 H   0  0  0  0  0  0  0  0  0  0  0  0
    5.7932   -5.7150    0.0000 H   0  0  0  0  0  0  0  0  0  0  0  0
  1 22  2  0  0  0  0
  2 24  2  0  0  0  0
  3 33  2  0  0  0  0
  4 35  2  0  0  0  0
  5 43  2  0  0  0  0
  6 52  1  0  0  0  0
  6123  1  0  0  0  0
  7 52  2  0  0  0  0
  8 57  1  0  0  0  0
  8128  1  0  0  0  0
  9 18  1  0  0  0  0
  9 21  1  0  0  0  0
  9 22  1  0  0  0  0
 10 24  1  0  0  0  0
 27 10  1  1  0  0  0
 10 70  1  0  0  0  0
 11 30  1  0  0  0  0
 11 40  1  0  0  0  0
 11 41  1  0  0  0  0
 11 42  1  0  0  0  0
 23 12  1  6  0  0  0
 12 33  1  0  0  0  0
 12 73  1  0  0  0  0
 28 13  1  6  0  0  0
 13 35  1  0  0  0  0
 13 84  1  0  0  0  0
 14 43  1  0  0  0  0
 47 14  1  1  0  0  0
 14108  1  0  0  0  0
 15 45  1  0  0  0  0
 15 58  2  0  0  0  0
 16 58  1  0  0  0  0
 16124  1  0  0  0  0
 16125  1  0  0  0  0
 17 58  1  0  0  0  0
 17126  1  0  0  0  0
 17127  1  0  0  0  0
 18 19  1  0  0  0  0
 18 24  1  1  0  0  0
 18 59  1  0  0  0  0
 19 20  1  0  0  0  0
 19 60  1  0  0  0  0
 19 61  1  0  0  0  0
 20 21  1  0  0  0  0
 20 62  1  0  0  0  0
 20 63  1  0  0  0  0
 21 64  1  0  0  0  0
 21 65  1  0  0  0  0
 22 23  1  0  0  0  0
 23 25  1  0  0  0  0
 23 66  1  0  0  0  0
 25 34  1  0  0  0  0
 25 67  1  0  0  0  0
 25 68  1  0  0  0  0
 26 28  1  0  0  0  0
 26 37  1  0  0  0  0
 26 38  1  0  0  0  0
 26 39  1  0  0  0  0
 27 35  1  0  0  0  0
 27 36  1  0  0  0  0
 27 69  1  0  0  0  0
 28 43  1  0  0  0  0
 28 71  1  0  0  0  0
 29 31  1  0  0  0  0
 29 33  1  0  0  0  0
 29 44  1  6  0  0  0
 29 72  1  0  0  0  0
 30 32  1  0  0  0  0
 30 74  1  0  0  0  0
 30 75  1  0  0  0  0
 31 32  1  0  0  0  0
 31 76  1  0  0  0  0
 31 77  1  0  0  0  0
 32 78  1  0  0  0  0
 32 79  1  0  0  0  0
 34 45  1  0  0  0  0
 34 80  1  0  0  0  0
 34 81  1  0  0  0  0
 36 46  1  0  0  0  0
 36 82  1  0  0  0  0
 36 83  1  0  0  0  0
 37 91  1  0  0  0  0
 37 92  1  0  0  0  0
 37 93  1  0  0  0  0
 38 88  1  0  0  0  0
 38 89  1  0  0  0  0
 38 90  1  0  0  0  0
 39 85  1  0  0  0  0
 39 86  1  0  0  0  0
 39 87  1  0  0  0  0
 40 94  1  0  0  0  0
 40 95  1  0  0  0  0
 40 96  1  0  0  0  0
 41 97  1  0  0  0  0
 41 98  1  0  0  0  0
 41 99  1  0  0  0  0
 42100  1  0  0  0  0
 42101  1  0  0  0  0
 42102  1  0  0  0  0
 44103  1  0  0  0  0
 44104  1  0  0  0  0
 44105  1  0  0  0  0
 45106  1  0  0  0  0
 45107  1  0  0  0  0
 46 50  2  0  0  0  0
 46 51  1  0  0  0  0
 47 48  1  0  0  0  0
 47 52  1  0  0  0  0
 47109  1  0  0  0  0
 48 49  1  0  0  0  0
 48110  1  0  0  0  0
 48111  1  0  0  0  0
 49 53  1  0  0  0  0
 49 54  1  0  0  0  0
 49112  1  0  0  0  0
 50 55  1  0  0  0  0
 50113  1  0  0  0  0
 51 56  2  0  0  0  0
 51114  1  0  0  0  0
 53118  1  0  0  0  0
 53119  1  0  0  0  0
 53120  1  0  0  0  0
 54115  1  0  0  0  0
 54116  1  0  0  0  0
 54117  1  0  0  0  0
 55 57  2  0  0  0  0
 55121  1  0  0  0  0
 56 57  1  0  0  0  0
 56122  1  0  0  0  0
M  CHG  1  11   1
M  END
> <PUBCHEM_COMPOUND_CID>
16127648

> <PUBCHEM_COMPOUND_CANONICALIZED>
1

> <PUBCHEM_CACTVS_COMPLEXITY>
1410

> <PUBCHEM_CACTVS_HBOND_ACCEPTOR>
9

> <PUBCHEM_CACTVS_HBOND_DONOR>
8

> <PUBCHEM_CACTVS_ROTATABLE_BOND>
23

> <PUBCHEM_CACTVS_SUBSKEYS>
AAADcfB//AAAAAAAAAAAAAAAAAAAAWAAAAAwAAAAAAAAAAABAAAAHgAQCAAADyzBmAQzDoPAAgCoAiHSPAACAAEgIAAIiIGOCIgKZjKCkTOUcAAk1hGYmAeYyaCPIAAAAAAAAABAAAAAAAAAAAAAAAAAAA==

> <PUBCHEM_IUPAC_OPENEYE_NAME>
[(4S)-5-[[(1S)-1-[(2S)-2-[[(1S)-2-[[(1S)-1-[[(1S)-1-carboxy-3-methyl-butyl]carbamoyl]-2,2-dimethyl-propyl]amino]-1-[(4-hydroxyphenyl)methyl]-2-oxo-ethyl]carbamoyl]pyrrolidine-1-carbonyl]-4-guanidino-butyl]amino]-4-methyl-5-oxo-pentyl]-trimethyl-ammonium

> <PUBCHEM_IUPAC_CAS_NAME>
[(4S)-5-[[(2S)-1-[(2S)-2-[[[(2S)-1-[[(2S)-1-[[(1S)-1-carboxy-3-methylbutyl]amino]-3,3-dimethyl-1-oxobutan-2-yl]amino]-3-(4-hydroxyphenyl)-1-oxopropan-2-yl]amino]-oxomethyl]-1-pyrrolidinyl]-5-(diaminomethylideneamino)-1-oxopentan-2-yl]amino]-4-methyl-5-oxopentyl]-trimethylammonium

> <PUBCHEM_IUPAC_NAME>
[(4S)-5-[[(2S)-1-[(2S)-2-[[(2S)-1-[[(2S)-1-[[(1S)-1-carboxy-3-methylbutyl]amino]-3,3-dimethyl-1-oxobutan-2-yl]amino]-3-(4-hydroxyphenyl)-1-oxopropan-2-yl]carbamoyl]pyrrolidin-1-yl]-5-(diaminomethylideneamino)-1-oxopentan-2-yl]amino]-4-methyl-5-oxopentyl]-trimethylazanium

> <PUBCHEM_IUPAC_SYSTEMATIC_NAME>
[(4S)-5-[[(2S)-5-[bis(azanyl)methylideneamino]-1-[(2S)-2-[[(2S)-1-[[(2S)-3,3-dimethyl-1-[[(2S)-4-methyl-1-oxidanyl-1-oxidanylidene-pentan-2-yl]amino]-1-oxidanylidene-butan-2-yl]amino]-3-(4-hydroxyphenyl)-1-oxidanylidene-propan-2-yl]carbamoyl]pyrrolidin-1-yl]-1-oxidanylidene-pentan-2-yl]amino]-4-methyl-5-oxidanylidene-pentyl]-trimethyl-azanium

> <PUBCHEM_IUPAC_TRADITIONAL_NAME>
[(4S)-5-[[(1S)-1-[(2S)-2-[[(1S)-2-[[(1S)-1-[[(1S)-1-carboxy-3-methyl-butyl]carbamoyl]-2,2-dimethyl-propyl]amino]-1-(4-hydroxybenzyl)-2-keto-ethyl]carbamoyl]pyrrolidine-1-carbonyl]-4-guanidino-butyl]amino]-5-keto-4-methyl-pentyl]-trimethyl-ammonium

> <PUBCHEM_IUPAC_INCHI>
InChI=1S/C41H69N9O8/c1-25(2)23-31(39(57)58)47-37(55)33(41(4,5)6)48-35(53)30(24-27-16-18-28(51)19-17-27)46-36(54)32-15-11-21-49(32)38(56)29(14-10-20-44-40(42)43)45-34(52)26(3)13-12-22-50(7,8)9/h16-19,25-26,29-33H,10-15,20-24H2,1-9H3,(H9-,42,43,44,45,46,47,48,51,52,53,54,55,57,58)/p+1/t26-,29-,30-,31-,32-,33+/m0/s1

> <PUBCHEM_IUPAC_INCHIKEY>
NWPZHWJQSGWXSJ-BJAKLJBYSA-O

> <PUBCHEM_XLOGP3_AA>
2.8

> <PUBCHEM_EXACT_MASS>
816.535

> <PUBCHEM_MOLECULAR_FORMULA>
C41H70N9O8+

> <PUBCHEM_MOLECULAR_WEIGHT>
817.066

> <PUBCHEM_OPENEYE_CAN_SMILES>
CC(C)CC(C(=O)O)NC(=O)C(C(C)(C)C)NC(=O)C(CC1=CC=C(C=C1)O)NC(=O)C2CCCN2C(=O)C(CCCN=C(N)N)NC(=O)C(C)CCC[N+](C)(C)C

> <PUBCHEM_OPENEYE_ISO_SMILES>
C[C@@H](CCC[N+](C)(C)C)C(=O)N[C@@H](CCCN=C(N)N)C(=O)N1CCC[C@H]1C(=O)N[C@@H](CC2=CC=C(C=C2)O)C(=O)N[C@H](C(=O)N[C@@H](CC(C)C)C(=O)O)C(C)(C)C

> <PUBCHEM_CACTVS_TPSA>
259

> <PUBCHEM_MONOISOTOPIC_WEIGHT>
816.535

> <PUBCHEM_TOTAL_CHARGE>
1

> <PUBCHEM_HEAVY_ATOM_COUNT>
58

> <PUBCHEM_ATOM_DEF_STEREO_COUNT>
6

> <PUBCHEM_ATOM_UDEF_STEREO_COUNT>
0

> <PUBCHEM_BOND_DEF_STEREO_COUNT>
0

> <PUBCHEM_BOND_UDEF_STEREO_COUNT>
0

> <PUBCHEM_ISOTOPIC_ATOM_COUNT>
0

> <PUBCHEM_COMPONENT_COUNT>
1

> <PUBCHEM_CACTVS_TAUTO_COUNT>
64

> <PUBCHEM_COORDINATE_TYPE>
1
5
255

> <PUBCHEM_BONDANNOTATIONS>
27  10  5
23  12  6
28  13  6
47  14  5
18  24  5
29  44  6
46  50  8
46  51  8
50  55  8
51  56  8
55  57  8
56  57  8

$$$$
