53259112
  -OEChem-03161711153D

 59 64  0     0  0  0  0  0  0999 V2000
    1.0190    1.1248    1.8441 O   0  0  0  0  0  0  0  0  0  0  0  0
    2.9531    1.4803    0.6322 N   0  0  0  0  0  0  0  0  0  0  0  0
   -1.8689    1.0471   -0.4074 N   0  0  0  0  0  0  0  0  0  0  0  0
   -3.8097    0.1916    0.6629 N   0  0  0  0  0  0  0  0  0  0  0  0
   -4.8165   -0.5266   -1.8250 N   0  0  0  0  0  0  0  0  0  0  0  0
    3.5551   -3.5867   -0.7142 N   0  0  0  0  0  0  0  0  0  0  0  0
    0.7657    2.3556   -0.2269 C   0  0  0  0  0  0  0  0  0  0  0  0
    1.6011    3.5077   -0.8280 C   0  0  0  0  0  0  0  0  0  0  0  0
   -0.5306    2.9791    0.3489 C   0  0  0  0  0  0  0  0  0  0  0  0
    0.3921    1.3323   -1.3260 C   0  0  0  0  0  0  0  0  0  0  0  0
    1.5817    1.6296    0.8687 C   0  0  0  0  0  0  0  0  0  0  0  0
    2.9456    3.0223   -1.3376 C   0  0  0  0  0  0  0  0  0  0  0  0
   -0.6896    0.3379   -0.9017 C   0  0  0  0  0  0  0  0  0  0  0  0
   -1.6424    1.9861    0.6941 C   0  0  0  0  0  0  0  0  0  0  0  0
    3.7238    2.4035   -0.1967 C   0  0  0  0  0  0  0  0  0  0  0  0
    3.7360    0.6321    1.5215 C   0  0  0  0  0  0  0  0  0  0  0  0
   -3.1226    0.4262   -0.4694 C   0  0  0  0  0  0  0  0  0  0  0  0
    4.4241   -0.4767    0.7789 C   0  0  0  0  0  0  0  0  0  0  0  0
   -3.6189    0.0722   -1.6958 C   0  0  0  0  0  0  0  0  0  0  0  0
    3.7354   -1.6134    0.3109 C   0  0  0  0  0  0  0  0  0  0  0  0
    5.8004   -0.3692    0.5482 C   0  0  0  0  0  0  0  0  0  0  0  0
    4.4514   -2.5997   -0.3707 C   0  0  0  0  0  0  0  0  0  0  0  0
   -5.0092   -0.4062    0.5552 C   0  0  0  0  0  0  0  0  0  0  0  0
    2.3798   -2.0428    0.3639 C   0  0  0  0  0  0  0  0  0  0  0  0
    6.4891   -1.3692   -0.1354 C   0  0  0  0  0  0  0  0  0  0  0  0
   -5.5191   -0.7698   -0.7047 C   0  0  0  0  0  0  0  0  0  0  0  0
    5.8271   -2.5056   -0.6090 C   0  0  0  0  0  0  0  0  0  0  0  0
    2.3005   -3.2590   -0.2747 C   0  0  0  0  0  0  0  0  0  0  0  0
   -5.7644   -0.6737    1.6946 C   0  0  0  0  0  0  0  0  0  0  0  0
   -6.7654   -1.3873   -0.7785 C   0  0  0  0  0  0  0  0  0  0  0  0
   -7.0105   -1.2922    1.6098 C   0  0  0  0  0  0  0  0  0  0  0  0
   -7.5132   -1.6504    0.3679 C   0  0  0  0  0  0  0  0  0  0  0  0
    1.0580    3.9862   -1.6525 H   0  0  0  0  0  0  0  0  0  0  0  0
    1.7664    4.2838   -0.0684 H   0  0  0  0  0  0  0  0  0  0  0  0
    0.0322    1.8709   -2.2131 H   0  0  0  0  0  0  0  0  0  0  0  0
    1.2693    0.7544   -1.6406 H   0  0  0  0  0  0  0  0  0  0  0  0
   -0.2997    3.5732    1.2425 H   0  0  0  0  0  0  0  0  0  0  0  0
   -0.9410    3.6812   -0.3906 H   0  0  0  0  0  0  0  0  0  0  0  0
    3.5128    3.8592   -1.7607 H   0  0  0  0  0  0  0  0  0  0  0  0
    2.8150    2.2957   -2.1466 H   0  0  0  0  0  0  0  0  0  0  0  0
   -0.3167   -0.3340   -0.1211 H   0  0  0  0  0  0  0  0  0  0  0  0
   -0.9295   -0.2901   -1.7678 H   0  0  0  0  0  0  0  0  0  0  0  0
   -2.5522    2.5661    0.8980 H   0  0  0  0  0  0  0  0  0  0  0  0
   -1.4079    1.4338    1.6107 H   0  0  0  0  0  0  0  0  0  0  0  0
    4.5990    1.8927   -0.6084 H   0  0  0  0  0  0  0  0  0  0  0  0
    4.0859    3.1951    0.4710 H   0  0  0  0  0  0  0  0  0  0  0  0
    4.4520    1.2680    2.0572 H   0  0  0  0  0  0  0  0  0  0  0  0
    3.1028    0.1839    2.2957 H   0  0  0  0  0  0  0  0  0  0  0  0
   -3.0945    0.2594   -2.6255 H   0  0  0  0  0  0  0  0  0  0  0  0
    6.3527    0.4991    0.9000 H   0  0  0  0  0  0  0  0  0  0  0  0
    1.5500   -1.5281    0.8262 H   0  0  0  0  0  0  0  0  0  0  0  0
    7.5579   -1.2653   -0.3039 H   0  0  0  0  0  0  0  0  0  0  0  0
    6.3642   -3.2836   -1.1410 H   0  0  0  0  0  0  0  0  0  0  0  0
    3.7902   -4.4308   -1.2177 H   0  0  0  0  0  0  0  0  0  0  0  0
    1.4644   -3.9204   -0.4529 H   0  0  0  0  0  0  0  0  0  0  0  0
   -5.3819   -0.3978    2.6754 H   0  0  0  0  0  0  0  0  0  0  0  0
   -7.1720   -1.6739   -1.7465 H   0  0  0  0  0  0  0  0  0  0  0  0
   -7.5828   -1.4916    2.5106 H   0  0  0  0  0  0  0  0  0  0  0  0
   -8.4826   -2.1327    0.2879 H   0  0  0  0  0  0  0  0  0  0  0  0
  1 11  2  0  0  0  0
  2 11  1  0  0  0  0
  2 15  1  0  0  0  0
  2 16  1  0  0  0  0
  3 13  1  0  0  0  0
  3 14  1  0  0  0  0
  3 17  1  0  0  0  0
  4 17  2  0  0  0  0
  4 23  1  0  0  0  0
  5 19  2  0  0  0  0
  5 26  1  0  0  0  0
  6 22  1  0  0  0  0
  6 28  1  0  0  0  0
  6 54  1  0  0  0  0
  7  8  1  0  0  0  0
  7  9  1  0  0  0  0
  7 10  1  0  0  0  0
  7 11  1  0  0  0  0
  8 12  1  0  0  0  0
  8 33  1  0  0  0  0
  8 34  1  0  0  0  0
  9 14  1  0  0  0  0
  9 37  1  0  0  0  0
  9 38  1  0  0  0  0
 10 13  1  0  0  0  0
 10 35  1  0  0  0  0
 10 36  1  0  0  0  0
 12 15  1  0  0  0  0
 12 39  1  0  0  0  0
 12 40  1  0  0  0  0
 13 41  1  0  0  0  0
 13 42  1  0  0  0  0
 14 43  1  0  0  0  0
 14 44  1  0  0  0  0
 15 45  1  0  0  0  0
 15 46  1  0  0  0  0
 16 18  1  0  0  0  0
 16 47  1  0  0  0  0
 16 48  1  0  0  0  0
 17 19  1  0  0  0  0
 18 20  2  0  0  0  0
 18 21  1  0  0  0  0
 19 49  1  0  0  0  0
 20 22  1  0  0  0  0
 20 24  1  0  0  0  0
 21 25  2  0  0  0  0
 21 50  1  0  0  0  0
 22 27  2  0  0  0  0
 23 26  1  0  0  0  0
 23 29  2  0  0  0  0
 24 28  2  0  0  0  0
 24 51  1  0  0  0  0
 25 27  1  0  0  0  0
 25 52  1  0  0  0  0
 26 30  2  0  0  0  0
 27 53  1  0  0  0  0
 28 55  1  0  0  0  0
 29 31  1  0  0  0  0
 29 56  1  0  0  0  0
 30 32  1  0  0  0  0
 30 57  1  0  0  0  0
 31 32  2  0  0  0  0
 31 58  1  0  0  0  0
 32 59  1  0  0  0  0
M  END
> <PUBCHEM_COMPOUND_CID>
53259112

> <PUBCHEM_CONFORMER_RMSD>
0.8

> <PUBCHEM_CONFORMER_DIVERSEORDER>
1
125
210
239
253
296
309
250
174
128
367
37
12
262
377
126
316
241
277
349
280
344
358
338
284
82
299
290
301
219
86
173
295
47
353
99
333
194
357
248
283
195
142
387
100
138
360
186
339
294
43
198
320
42
229
108
145
259
107
33
268
156
401
87
389
189
227
30
373
69
226
130
221
49
88
63
218
331
300
362
321
396
155
247
102
244
269
398
216
222
278
311
374
350
123
171
62
213
78
380
270
117
312
261
382
178
144
187
224
190
114
70
163
184
324
365
58
132
287
315
161
79
203
112
289
167
286
54
223
71
115
188
332
330
140
297
103
104
314
160
336
148
394
354
317
83
127
282
366
392
206
340
129
212
263
31
202
44
393
252
369
251
200
246
292
109
313
177
170
24
274
238
56
60
28
183
347
388
264
372
53
116
36
11
319
257
348
233
106
26
19
400
98
32
375
158
101
197
45
119
306
307
196
385
75
92
172
258
136
371
304
20
139
255
118
111
390
386
293
345
361
225
359
323
165
162
91
182
55
254
214
343
243
266
168
175
135
355
72
180
275
35
211
21
235
397
4
342
272
120
59
90
146
121
303
169
279
240
318
298
230
376
288
379
368
5
22
81
77
52
351
363
67
260
236
346
150
232
29
18
217
370
325
6
193
64
89
335
85
322
50
308
265
291
381
391
27
205
61
7
228
131
74
65
237
124
34
40
256
13
16
179
17
97
329
95
192
14
204
39
152
276
51
73
9
68
110
383
185
134
201
133
208
199
356
157
141
337
285
215
234
328
231
249
57
76
326
395
137
242
267
341
384
327
281
80
191
220
378
25
93
147
15
273
310
154
176
159
209
153
207
105
23
334
38
8
181
364
166
302
164
94
149
122
66
143
2
352
113
84
271
46
48
245
305
399
41
3
151
10
96

> <PUBCHEM_MMFF94_PARTIAL_CHARGES>
38
1 -0.57
11 0.57
13 0.37
14 0.37
15 0.3
16 0.44
17 0.41
18 -0.14
19 0.16
2 -0.66
21 -0.15
22 -0.15
23 0.31
24 -0.15
25 -0.15
26 0.31
27 -0.15
28 -0.3
29 -0.15
3 -0.84
30 -0.15
31 -0.15
32 -0.15
4 -0.62
49 0.15
5 -0.62
50 0.15
51 0.15
52 0.15
53 0.15
54 0.27
55 0.15
56 0.15
57 0.15
58 0.15
59 0.15
6 0.03
7 0.06

> <PUBCHEM_EFFECTIVE_ROTOR_COUNT>
4.8

> <PUBCHEM_PHARMACOPHORE_FEATURES>
11
1 1 acceptor
1 5 acceptor
1 6 cation
1 6 donor
3 3 4 17 cation
5 6 20 22 24 28 rings
6 18 20 21 22 25 27 rings
6 2 7 8 11 12 15 rings
6 23 26 29 30 31 32 rings
6 3 7 9 10 13 14 rings
6 4 5 17 19 23 26 rings

> <PUBCHEM_HEAVY_ATOM_COUNT>
32

> <PUBCHEM_ATOM_DEF_STEREO_COUNT>
0

> <PUBCHEM_ATOM_UDEF_STEREO_COUNT>
0

> <PUBCHEM_BOND_DEF_STEREO_COUNT>
0

> <PUBCHEM_BOND_UDEF_STEREO_COUNT>
0

> <PUBCHEM_ISOTOPIC_ATOM_COUNT>
0

> <PUBCHEM_COMPONENT_COUNT>
1

> <PUBCHEM_CACTVS_TAUTO_COUNT>
1

> <PUBCHEM_CONFORMER_ID>
032CAB6800000001

> <PUBCHEM_MMFF94_ENERGY>
98.811

> <PUBCHEM_FEATURE_SELFOVERLAP>
55.954

> <PUBCHEM_SHAPE_FINGERPRINT>
10316853 100 18334579066019360402
10319926 262 14764349375110516149
10864689 126 18188487957149382147
11059845 2 17342676469671092265
11135609 12 18408324354850697097
11181472 205 18335708256862896317
11621639 148 18335695105736183496
11991303 11 17828766132205483941
12422481 6 17417813885877482405
12596602 18 16701731743709621306
12778500 126 17060624377766859858
13008946 62 16885852842862380925
13402501 40 18334013886851169258
13533116 47 18341895237775357969
1361 2 18410572911789877306
13782708 43 17822290228171892011
13989917 61 18338239387599668859
15082195 135 13406792233244887905
15238133 3 10159395662575760730
15361156 5 18115888316183386329
15510800 12 18259706696264895323
15721738 202 18202281373189294058
15799311 1 18267313195595327311
15927050 60 17908425006839601516
19301679 30 18412552007440583225
19319366 153 18054510484681413964
1979834 28 18339915013349840224
20554085 129 14549025364818974207
20775530 9 18270106916811883066
21033650 10 15864345801863329349
21403212 168 9079115536698649796
21585482 310 18114471127694986507
21623969 137 18335416889389007979
23559900 14 18336816529368952413
239999 70 17749382719418171376
25223398 141 14779844800628067744
25269216 80 16588032299392070615
3459 39 14836403614931816863
34797466 226 16733263573079501813
3737641 26 18057604257452234934
3886686 26 17338735763935467137
404807 78 16878239643762228882
4144715 1 18113900486077733997
4435113 14 17823995630599018195
4461854 278 18131636698949234974
46194498 28 17822285820987009204
463206 1 18199457930065540414
513202 73 18410013209348722209
5309563 4 18337389340519494204
86090 222 18261109681623430410
9555976 147 17489039145829822689
9831232 110 18260264153635658983

> <PUBCHEM_SHAPE_MULTIPOLES>
627.77
18.01
4.02
1.48
23.21
0.46
-0.08
-15.56
-2.04
-5.86
0.88
1.29
0.18
0.68

> <PUBCHEM_SHAPE_SELFOVERLAP>
1399.173

> <PUBCHEM_SHAPE_VOLUME>
328.4

> <PUBCHEM_COORDINATE_TYPE>
2
5
10

$$$$
