67251348
  -OEChem-03161711183D

 58 63  0     0  0  0  0  0  0999 V2000
    1.0053    1.5003    1.8131 O   0  0  0  0  0  0  0  0  0  0  0  0
   -2.0591    1.1108   -0.1548 N   0  0  0  0  0  0  0  0  0  0  0  0
    2.8281    1.6774    0.4055 N   0  0  0  0  0  0  0  0  0  0  0  0
   -3.6110   -0.5406   -0.8693 N   0  0  0  0  0  0  0  0  0  0  0  0
   -4.2854    0.7390    0.8183 N   0  0  0  0  0  0  0  0  0  0  0  0
    5.8229   -1.5885   -0.2312 N   0  0  0  0  0  0  0  0  0  0  0  0
    0.5680    2.4267   -0.3820 C   0  0  0  0  0  0  0  0  0  0  0  0
    1.3390    3.4807   -1.2073 C   0  0  0  0  0  0  0  0  0  0  0  0
   -0.6819    3.1277    0.2068 C   0  0  0  0  0  0  0  0  0  0  0  0
    0.1146    1.2591   -1.2907 C   0  0  0  0  0  0  0  0  0  0  0  0
    1.4797    1.8612    0.7327 C   0  0  0  0  0  0  0  0  0  0  0  0
    2.6411    2.9257   -1.7544 C   0  0  0  0  0  0  0  0  0  0  0  0
   -0.9181    0.3366   -0.6413 C   0  0  0  0  0  0  0  0  0  0  0  0
   -1.7512    2.1955    0.7805 C   0  0  0  0  0  0  0  0  0  0  0  0
    3.5179    2.4729   -0.6069 C   0  0  0  0  0  0  0  0  0  0  0  0
    3.6907    0.9619    1.3366 C   0  0  0  0  0  0  0  0  0  0  0  0
   -3.3075    0.4897   -0.0234 C   0  0  0  0  0  0  0  0  0  0  0  0
    4.3256   -0.2419    0.7027 C   0  0  0  0  0  0  0  0  0  0  0  0
    3.6906   -1.4828    0.4163 C   0  0  0  0  0  0  0  0  0  0  0  0
   -4.8687   -0.9857   -0.5523 C   0  0  0  0  0  0  0  0  0  0  0  0
    5.6356   -0.3378    0.2933 C   0  0  0  0  0  0  0  0  0  0  0  0
   -5.2682   -0.1713    0.5037 C   0  0  0  0  0  0  0  0  0  0  0  0
    4.6518   -2.3097   -0.1691 C   0  0  0  0  0  0  0  0  0  0  0  0
    2.3862   -1.9834    0.5994 C   0  0  0  0  0  0  0  0  0  0  0  0
   -5.6668   -1.9999   -1.0827 C   0  0  0  0  0  0  0  0  0  0  0  0
   -6.5362   -0.3661    1.0769 C   0  0  0  0  0  0  0  0  0  0  0  0
    4.3727   -3.6173   -0.5820 C   0  0  0  0  0  0  0  0  0  0  0  0
    2.0926   -3.2895    0.1912 C   0  0  0  0  0  0  0  0  0  0  0  0
   -6.9256   -2.1799   -0.5000 C   0  0  0  0  0  0  0  0  0  0  0  0
   -7.3547   -1.3786    0.5607 C   0  0  0  0  0  0  0  0  0  0  0  0
    3.0721   -4.0921   -0.3903 C   0  0  0  0  0  0  0  0  0  0  0  0
    1.5592    4.3560   -0.5813 H   0  0  0  0  0  0  0  0  0  0  0  0
    0.7244    3.8390   -2.0426 H   0  0  0  0  0  0  0  0  0  0  0  0
   -0.3833    3.8414    0.9854 H   0  0  0  0  0  0  0  0  0  0  0  0
   -1.1596    3.7192   -0.5870 H   0  0  0  0  0  0  0  0  0  0  0  0
   -0.3224    1.6675   -2.2120 H   0  0  0  0  0  0  0  0  0  0  0  0
    0.9691    0.6413   -1.5920 H   0  0  0  0  0  0  0  0  0  0  0  0
    2.4510    2.0924   -2.4391 H   0  0  0  0  0  0  0  0  0  0  0  0
    3.1628    3.6934   -2.3372 H   0  0  0  0  0  0  0  0  0  0  0  0
   -1.1857   -0.4062   -1.3977 H   0  0  0  0  0  0  0  0  0  0  0  0
   -0.4703   -0.2142    0.1941 H   0  0  0  0  0  0  0  0  0  0  0  0
   -1.4346    1.7735    1.7405 H   0  0  0  0  0  0  0  0  0  0  0  0
   -2.6460    2.7982    0.9825 H   0  0  0  0  0  0  0  0  0  0  0  0
    4.3626    1.9065   -1.0109 H   0  0  0  0  0  0  0  0  0  0  0  0
    3.9253    3.3506   -0.0900 H   0  0  0  0  0  0  0  0  0  0  0  0
    3.1303    0.6331    2.2189 H   0  0  0  0  0  0  0  0  0  0  0  0
    4.4546    1.6608    1.6993 H   0  0  0  0  0  0  0  0  0  0  0  0
   -3.0505   -0.9037   -1.6266 H   0  0  0  0  0  0  0  0  0  0  0  0
    6.4519    0.3704    0.3268 H   0  0  0  0  0  0  0  0  0  0  0  0
    6.6944   -1.9333   -0.6095 H   0  0  0  0  0  0  0  0  0  0  0  0
    1.6122   -1.3729    1.0545 H   0  0  0  0  0  0  0  0  0  0  0  0
   -5.3316   -2.6205   -1.9059 H   0  0  0  0  0  0  0  0  0  0  0  0
   -6.8787    0.2512    1.9012 H   0  0  0  0  0  0  0  0  0  0  0  0
    5.1345   -4.2429   -1.0348 H   0  0  0  0  0  0  0  0  0  0  0  0
    1.0883   -3.6808    0.3305 H   0  0  0  0  0  0  0  0  0  0  0  0
   -7.5821   -2.9585   -0.8807 H   0  0  0  0  0  0  0  0  0  0  0  0
   -8.3385   -1.5425    0.9928 H   0  0  0  0  0  0  0  0  0  0  0  0
    2.8221   -5.1037   -0.7000 H   0  0  0  0  0  0  0  0  0  0  0  0
  1 11  2  0  0  0  0
  2 13  1  0  0  0  0
  2 14  1  0  0  0  0
  2 17  1  0  0  0  0
  3 11  1  0  0  0  0
  3 15  1  0  0  0  0
  3 16  1  0  0  0  0
  4 17  1  0  0  0  0
  4 20  1  0  0  0  0
  4 48  1  0  0  0  0
  5 17  2  0  0  0  0
  5 22  1  0  0  0  0
  6 21  1  0  0  0  0
  6 23  1  0  0  0  0
  6 50  1  0  0  0  0
  7  8  1  0  0  0  0
  7  9  1  0  0  0  0
  7 10  1  0  0  0  0
  7 11  1  0  0  0  0
  8 12  1  0  0  0  0
  8 32  1  0  0  0  0
  8 33  1  0  0  0  0
  9 14  1  0  0  0  0
  9 34  1  0  0  0  0
  9 35  1  0  0  0  0
 10 13  1  0  0  0  0
 10 36  1  0  0  0  0
 10 37  1  0  0  0  0
 12 15  1  0  0  0  0
 12 38  1  0  0  0  0
 12 39  1  0  0  0  0
 13 40  1  0  0  0  0
 13 41  1  0  0  0  0
 14 42  1  0  0  0  0
 14 43  1  0  0  0  0
 15 44  1  0  0  0  0
 15 45  1  0  0  0  0
 16 18  1  0  0  0  0
 16 46  1  0  0  0  0
 16 47  1  0  0  0  0
 18 19  1  0  0  0  0
 18 21  2  0  0  0  0
 19 23  1  0  0  0  0
 19 24  2  0  0  0  0
 20 22  1  0  0  0  0
 20 25  2  0  0  0  0
 21 49  1  0  0  0  0
 22 26  2  0  0  0  0
 23 27  2  0  0  0  0
 24 28  1  0  0  0  0
 24 51  1  0  0  0  0
 25 29  1  0  0  0  0
 25 52  1  0  0  0  0
 26 30  1  0  0  0  0
 26 53  1  0  0  0  0
 27 31  1  0  0  0  0
 27 54  1  0  0  0  0
 28 31  2  0  0  0  0
 28 55  1  0  0  0  0
 29 30  2  0  0  0  0
 29 56  1  0  0  0  0
 30 57  1  0  0  0  0
 31 58  1  0  0  0  0
M  END
> <PUBCHEM_COMPOUND_CID>
67251348

> <PUBCHEM_CONFORMER_RMSD>
0.8

> <PUBCHEM_CONFORMER_DIVERSEORDER>
1
181
96
123
110
53
145
20
119
211
143
34
21
187
142
131
111
33
161
120
130
23
82
158
37
164
103
64
86
6
102
105
198
90
101
41
106
118
126
196
139
44
104
97
107
202
68
92
138
189
175
58
81
147
57
177
63
201
121
152
207
186
89
98
183
56
154
159
25
15
167
174
184
79
191
65
18
69
157
206
47
108
42
116
199
72
117
13
137
204
160
112
26
55
48
136
38
93
182
141
203
50
4
149
7
163
22
62
165
166
74
100
195
122
78
162
30
80
151
180
170
14
205
49
171
156
87
150
113
188
200
17
75
132
197
9
39
91
148
31
135
208
43
169
210
115
127
176
29
40
193
134
19
52
83
5
46
59
67
45
125
12
129
109
172
94
36
146
28
133
178
76
71
114
194
85
209
144
95
99
190
16
192
70
153
173
10
8
60
66
155
128
179
32
35
3
61
84
11
51
27
140
73
185
77
2
88
124
54
24
168

> <PUBCHEM_MMFF94_PARTIAL_CHARGES>
37
1 -0.57
11 0.57
13 0.37
14 0.37
15 0.3
16 0.48
17 0.27
18 -0.18
2 -0.82
20 -0.15
21 -0.3
22 0.23
23 -0.15
24 -0.15
25 -0.15
26 -0.15
27 -0.15
28 -0.15
29 -0.15
3 -0.66
30 -0.15
31 -0.15
4 0.03
48 0.27
49 0.15
5 -0.57
50 0.27
51 0.15
52 0.15
53 0.15
54 0.15
55 0.15
56 0.15
57 0.15
58 0.15
6 0.03
7 0.06

> <PUBCHEM_EFFECTIVE_ROTOR_COUNT>
4.8

> <PUBCHEM_PHARMACOPHORE_FEATURES>
11
1 1 acceptor
1 4 donor
1 6 cation
1 6 donor
4 2 4 5 17 cation
5 4 5 17 20 22 rings
5 6 18 19 21 23 rings
6 19 23 24 27 28 31 rings
6 2 7 9 10 13 14 rings
6 20 22 25 26 29 30 rings
6 3 7 8 11 12 15 rings

> <PUBCHEM_HEAVY_ATOM_COUNT>
31

> <PUBCHEM_ATOM_DEF_STEREO_COUNT>
0

> <PUBCHEM_ATOM_UDEF_STEREO_COUNT>
0

> <PUBCHEM_BOND_DEF_STEREO_COUNT>
0

> <PUBCHEM_BOND_UDEF_STEREO_COUNT>
0

> <PUBCHEM_ISOTOPIC_ATOM_COUNT>
0

> <PUBCHEM_COMPONENT_COUNT>
1

> <PUBCHEM_CACTVS_TAUTO_COUNT>
1

> <PUBCHEM_CONFORMER_ID>
04022C9400000001

> <PUBCHEM_MMFF94_ENERGY>
72.9591

> <PUBCHEM_FEATURE_SELFOVERLAP>
56.024

> <PUBCHEM_SHAPE_FINGERPRINT>
10316853 100 18334297595300674370
11059845 2 17557158202959456753
11181472 205 18334018307527850045
11954058 11 18408326583537349244
11963148 33 18263636261288233794
11991303 11 17536309237793870213
12107183 9 18197790908205170681
12422481 6 17274821311989740901
12596602 18 17275101768811360427
12623949 98 18059299751748095590
12633257 1 15841537596258300409
13008946 62 16596220594049298805
13150687 139 17970368103731606036
13533116 47 18339644546221503553
1361 2 18409166644949838162
13692114 37 18196366151689118992
13911852 28 18412822456808658655
13989917 61 18337113492114426691
14251740 57 18413671300943834982
14347332 77 18408323281219701549
14863182 85 18338228392598974456
15250474 111 18198054984010876247
15361156 5 18042423342982677521
15475509 35 18130502019648307688
15721738 202 18201438056112967090
15799311 1 18266755734625934387
15927050 60 17836366321737574980
17492 89 18339360755929976296
1813 80 18040997306671841204
19301676 85 17544747938112974559
19301679 30 18410019840883560033
19315092 285 17917993892752548137
19319366 153 18053946435268924149
1979834 28 18339916104223794336
20028762 73 18342174492370313446
20775530 9 18268418054056369062
21197605 99 18341328972587478754
23522609 53 18052852349108353225
23559900 14 18337662045468671241
25269216 80 16588032290744126847
34797466 226 16226609727497038429
3737641 26 18270396071306618230
373842 8 18266743657062496543
3886686 26 17553778256743873521
4394409 98 15446901604693178350
4435113 14 17678753456079375075
44880168 125 16558464167756919598
46194498 28 17749103434885279660
463206 1 18268986656139461019
5309563 4 18336543820420129108
5372103 7 15431184533278104214
6327066 14 9980965227165283046
7970288 3 18341046428152868051
86090 222 18333447651289913034
9555976 147 17560813083095009251
9831232 110 18333449846614215175

> <PUBCHEM_SHAPE_MULTIPOLES>
607.19
16.35
4.83
1.24
26.19
1.27
-0.03
14.29
1.15
-5.9
-1.32
-0.03
-0.59
-0.81

> <PUBCHEM_SHAPE_SELFOVERLAP>
1351.88

> <PUBCHEM_SHAPE_VOLUME>
318.7

> <PUBCHEM_COORDINATE_TYPE>
2
5
10

$$$$
