130969
  -OEChem-03231712432D

120119  0     1  0  0  0  0  0999 V2000
    6.3301   -1.0000    0.0000 P   0  0  3  0  0  0  0  0  0  0  0  0
    5.4641   -1.5000    0.0000 O   0  0  0  0  0  0  0  0  0  0  0  0
    7.1962   -0.5000    0.0000 O   0  0  0  0  0  0  0  0  0  0  0  0
    8.9282   -2.5000    0.0000 O   0  0  0  0  0  0  0  0  0  0  0  0
    8.9282    2.5000    0.0000 O   0  0  0  0  0  0  0  0  0  0  0  0
    5.8301   -0.1340    0.0000 O   0  5  0  0  0  0  0  0  0  0  0  0
    6.8301   -1.8660    0.0000 O   0  0  0  0  0  0  0  0  0  0  0  0
    2.8660   -1.0000    0.0000 N   0  3  0  0  0  0  0  0  0  0  0  0
    9.7942   -1.0000    0.0000 N   0  0  0  0  0  0  0  0  0  0  0  0
    9.7942    1.0000    0.0000 N   0  0  0  0  0  0  0  0  0  0  0  0
   12.3923   -6.5000    0.0000 C   0  0  0  0  0  0  0  0  0  0  0  0
   12.3923   -5.5000    0.0000 C   0  0  0  0  0  0  0  0  0  0  0  0
   13.2583   -7.0000    0.0000 C   0  0  0  0  0  0  0  0  0  0  0  0
   12.3923    6.5000    0.0000 C   0  0  0  0  0  0  0  0  0  0  0  0
   13.2583    7.0000    0.0000 C   0  0  0  0  0  0  0  0  0  0  0  0
   12.3923    5.5000    0.0000 C   0  0  0  0  0  0  0  0  0  0  0  0
   11.5263   -5.0000    0.0000 C   0  0  0  0  0  0  0  0  0  0  0  0
   13.2583   -8.0000    0.0000 C   0  0  0  0  0  0  0  0  0  0  0  0
   13.2583    8.0000    0.0000 C   0  0  0  0  0  0  0  0  0  0  0  0
   11.5263    5.0000    0.0000 C   0  0  0  0  0  0  0  0  0  0  0  0
   11.5263   -4.0000    0.0000 C   0  0  0  0  0  0  0  0  0  0  0  0
   14.1244   -8.5000    0.0000 C   0  0  0  0  0  0  0  0  0  0  0  0
   14.1244    8.5000    0.0000 C   0  0  0  0  0  0  0  0  0  0  0  0
   11.5263    4.0000    0.0000 C   0  0  0  0  0  0  0  0  0  0  0  0
    3.7320   -1.5000    0.0000 C   0  0  0  0  0  0  0  0  0  0  0  0
   10.6603   -3.5000    0.0000 C   0  0  0  0  0  0  0  0  0  0  0  0
   14.1244   -9.5000    0.0000 C   0  0  0  0  0  0  0  0  0  0  0  0
   14.1244    9.5000    0.0000 C   0  0  0  0  0  0  0  0  0  0  0  0
   10.6603    3.5000    0.0000 C   0  0  0  0  0  0  0  0  0  0  0  0
    8.9282   -0.5000    0.0000 C   0  0  3  0  0  0  0  0  0  0  0  0
   10.6603   -2.5000    0.0000 C   0  0  0  0  0  0  0  0  0  0  0  0
    2.0000   -0.5000    0.0000 C   0  0  0  0  0  0  0  0  0  0  0  0
    2.3660   -1.8660    0.0000 C   0  0  0  0  0  0  0  0  0  0  0  0
    3.3660   -0.1340    0.0000 C   0  0  0  0  0  0  0  0  0  0  0  0
   14.9904  -10.0000    0.0000 C   0  0  0  0  0  0  0  0  0  0  0  0
   14.9904   10.0000    0.0000 C   0  0  0  0  0  0  0  0  0  0  0  0
    4.5981   -1.0000    0.0000 C   0  0  0  0  0  0  0  0  0  0  0  0
   10.6603    2.5000    0.0000 C   0  0  0  0  0  0  0  0  0  0  0  0
    8.9282    0.5000    0.0000 C   0  0  0  0  0  0  0  0  0  0  0  0
    8.0622   -1.0000    0.0000 C   0  0  0  0  0  0  0  0  0  0  0  0
    9.7942   -2.0000    0.0000 C   0  0  0  0  0  0  0  0  0  0  0  0
   14.9904  -11.0000    0.0000 C   0  0  0  0  0  0  0  0  0  0  0  0
   14.9904   11.0000    0.0000 C   0  0  0  0  0  0  0  0  0  0  0  0
    9.7942    2.0000    0.0000 C   0  0  0  0  0  0  0  0  0  0  0  0
   15.8564  -11.5000    0.0000 C   0  0  0  0  0  0  0  0  0  0  0  0
   15.8564   11.5000    0.0000 C   0  0  0  0  0  0  0  0  0  0  0  0
   11.7817   -6.3923    0.0000 H   0  0  0  0  0  0  0  0  0  0  0  0
   12.1803   -7.0826    0.0000 H   0  0  0  0  0  0  0  0  0  0  0  0
   13.0029   -5.6077    0.0000 H   0  0  0  0  0  0  0  0  0  0  0  0
   12.6044   -4.9174    0.0000 H   0  0  0  0  0  0  0  0  0  0  0  0
   13.8689   -7.1077    0.0000 H   0  0  0  0  0  0  0  0  0  0  0  0
   13.4704   -6.4174    0.0000 H   0  0  0  0  0  0  0  0  0  0  0  0
   12.1803    7.0826    0.0000 H   0  0  0  0  0  0  0  0  0  0  0  0
   11.7817    6.3923    0.0000 H   0  0  0  0  0  0  0  0  0  0  0  0
   13.4704    6.4174    0.0000 H   0  0  0  0  0  0  0  0  0  0  0  0
   13.8689    7.1077    0.0000 H   0  0  0  0  0  0  0  0  0  0  0  0
   12.6044    4.9174    0.0000 H   0  0  0  0  0  0  0  0  0  0  0  0
   13.0029    5.6077    0.0000 H   0  0  0  0  0  0  0  0  0  0  0  0
   10.9157   -4.8923    0.0000 H   0  0  0  0  0  0  0  0  0  0  0  0
   11.3142   -5.5826    0.0000 H   0  0  0  0  0  0  0  0  0  0  0  0
   12.6477   -7.8923    0.0000 H   0  0  0  0  0  0  0  0  0  0  0  0
   13.0463   -8.5826    0.0000 H   0  0  0  0  0  0  0  0  0  0  0  0
   13.0463    8.5826    0.0000 H   0  0  0  0  0  0  0  0  0  0  0  0
   12.6477    7.8923    0.0000 H   0  0  0  0  0  0  0  0  0  0  0  0
   11.3142    5.5826    0.0000 H   0  0  0  0  0  0  0  0  0  0  0  0
   10.9157    4.8923    0.0000 H   0  0  0  0  0  0  0  0  0  0  0  0
   12.1369   -4.1077    0.0000 H   0  0  0  0  0  0  0  0  0  0  0  0
   11.7383   -3.4174    0.0000 H   0  0  0  0  0  0  0  0  0  0  0  0
   14.7349   -8.6077    0.0000 H   0  0  0  0  0  0  0  0  0  0  0  0
   14.3364   -7.9174    0.0000 H   0  0  0  0  0  0  0  0  0  0  0  0
   14.3364    7.9174    0.0000 H   0  0  0  0  0  0  0  0  0  0  0  0
   14.7349    8.6077    0.0000 H   0  0  0  0  0  0  0  0  0  0  0  0
   11.7383    3.4174    0.0000 H   0  0  0  0  0  0  0  0  0  0  0  0
   12.1369    4.1077    0.0000 H   0  0  0  0  0  0  0  0  0  0  0  0
    3.3335   -1.9750    0.0000 H   0  0  0  0  0  0  0  0  0  0  0  0
    4.1306   -1.9750    0.0000 H   0  0  0  0  0  0  0  0  0  0  0  0
   10.0497   -3.3923    0.0000 H   0  0  0  0  0  0  0  0  0  0  0  0
   10.4482   -4.0826    0.0000 H   0  0  0  0  0  0  0  0  0  0  0  0
   13.5138   -9.3923    0.0000 H   0  0  0  0  0  0  0  0  0  0  0  0
   13.9123  -10.0826    0.0000 H   0  0  0  0  0  0  0  0  0  0  0  0
   13.9123   10.0826    0.0000 H   0  0  0  0  0  0  0  0  0  0  0  0
   13.5138    9.3923    0.0000 H   0  0  0  0  0  0  0  0  0  0  0  0
   10.4482    4.0826    0.0000 H   0  0  0  0  0  0  0  0  0  0  0  0
   10.0497    3.3923    0.0000 H   0  0  0  0  0  0  0  0  0  0  0  0
    9.6643   -0.0750    0.0000 H   0  0  0  0  0  0  0  0  0  0  0  0
   11.2708   -2.6077    0.0000 H   0  0  0  0  0  0  0  0  0  0  0  0
   10.8723   -1.9174    0.0000 H   0  0  0  0  0  0  0  0  0  0  0  0
    2.3100    0.0369    0.0000 H   0  0  0  0  0  0  0  0  0  0  0  0
    1.4631   -0.1900    0.0000 H   0  0  0  0  0  0  0  0  0  0  0  0
    1.6900   -1.0369    0.0000 H   0  0  0  0  0  0  0  0  0  0  0  0
    1.8291   -1.5560    0.0000 H   0  0  0  0  0  0  0  0  0  0  0  0
    2.0560   -2.4030    0.0000 H   0  0  0  0  0  0  0  0  0  0  0  0
    2.9030   -2.1760    0.0000 H   0  0  0  0  0  0  0  0  0  0  0  0
    3.9030   -0.4440    0.0000 H   0  0  0  0  0  0  0  0  0  0  0  0
    3.6760    0.4030    0.0000 H   0  0  0  0  0  0  0  0  0  0  0  0
    2.8291    0.1760    0.0000 H   0  0  0  0  0  0  0  0  0  0  0  0
   15.6010  -10.1077    0.0000 H   0  0  0  0  0  0  0  0  0  0  0  0
   15.2024   -9.4174    0.0000 H   0  0  0  0  0  0  0  0  0  0  0  0
   15.2024    9.4174    0.0000 H   0  0  0  0  0  0  0  0  0  0  0  0
   15.6010   10.1077    0.0000 H   0  0  0  0  0  0  0  0  0  0  0  0
    4.9966   -0.5251    0.0000 H   0  0  0  0  0  0  0  0  0  0  0  0
    4.1996   -0.5251    0.0000 H   0  0  0  0  0  0  0  0  0  0  0  0
   10.8723    1.9174    0.0000 H   0  0  0  0  0  0  0  0  0  0  0  0
   11.2708    2.6077    0.0000 H   0  0  0  0  0  0  0  0  0  0  0  0
    8.7162    1.0826    0.0000 H   0  0  0  0  0  0  0  0  0  0  0  0
    8.3176    0.3923    0.0000 H   0  0  0  0  0  0  0  0  0  0  0  0
   10.3312   -0.6900    0.0000 H   0  0  0  0  0  0  0  0  0  0  0  0
    7.6636   -1.4750    0.0000 H   0  0  0  0  0  0  0  0  0  0  0  0
    8.4607   -1.4750    0.0000 H   0  0  0  0  0  0  0  0  0  0  0  0
   14.3798  -10.8923    0.0000 H   0  0  0  0  0  0  0  0  0  0  0  0
   14.7783  -11.5826    0.0000 H   0  0  0  0  0  0  0  0  0  0  0  0
   14.7783   11.5826    0.0000 H   0  0  0  0  0  0  0  0  0  0  0  0
   14.3798   10.8923    0.0000 H   0  0  0  0  0  0  0  0  0  0  0  0
   10.3312    0.6900    0.0000 H   0  0  0  0  0  0  0  0  0  0  0  0
   15.5464  -12.0369    0.0000 H   0  0  0  0  0  0  0  0  0  0  0  0
   16.3933  -11.8100    0.0000 H   0  0  0  0  0  0  0  0  0  0  0  0
   16.1664  -10.9631    0.0000 H   0  0  0  0  0  0  0  0  0  0  0  0
   16.1664   10.9631    0.0000 H   0  0  0  0  0  0  0  0  0  0  0  0
   16.3933   11.8100    0.0000 H   0  0  0  0  0  0  0  0  0  0  0  0
   15.5464   12.0369    0.0000 H   0  0  0  0  0  0  0  0  0  0  0  0
  1  2  1  0  0  0  0
  1  3  1  0  0  0  0
  1  6  1  0  0  0  0
  1  7  2  0  0  0  0
  2 37  1  0  0  0  0
  3 40  1  0  0  0  0
  4 41  2  0  0  0  0
  5 44  2  0  0  0  0
  8 25  1  0  0  0  0
  8 32  1  0  0  0  0
  8 33  1  0  0  0  0
  8 34  1  0  0  0  0
  9 30  1  0  0  0  0
  9 41  1  0  0  0  0
  9107  1  0  0  0  0
 10 39  1  0  0  0  0
 10 44  1  0  0  0  0
 10114  1  0  0  0  0
 11 12  1  0  0  0  0
 11 13  1  0  0  0  0
 11 47  1  0  0  0  0
 11 48  1  0  0  0  0
 12 17  1  0  0  0  0
 12 49  1  0  0  0  0
 12 50  1  0  0  0  0
 13 18  1  0  0  0  0
 13 51  1  0  0  0  0
 13 52  1  0  0  0  0
 14 15  1  0  0  0  0
 14 16  1  0  0  0  0
 14 53  1  0  0  0  0
 14 54  1  0  0  0  0
 15 19  1  0  0  0  0
 15 55  1  0  0  0  0
 15 56  1  0  0  0  0
 16 20  1  0  0  0  0
 16 57  1  0  0  0  0
 16 58  1  0  0  0  0
 17 21  1  0  0  0  0
 17 59  1  0  0  0  0
 17 60  1  0  0  0  0
 18 22  1  0  0  0  0
 18 61  1  0  0  0  0
 18 62  1  0  0  0  0
 19 23  1  0  0  0  0
 19 63  1  0  0  0  0
 19 64  1  0  0  0  0
 20 24  1  0  0  0  0
 20 65  1  0  0  0  0
 20 66  1  0  0  0  0
 21 26  1  0  0  0  0
 21 67  1  0  0  0  0
 21 68  1  0  0  0  0
 22 27  1  0  0  0  0
 22 69  1  0  0  0  0
 22 70  1  0  0  0  0
 23 28  1  0  0  0  0
 23 71  1  0  0  0  0
 23 72  1  0  0  0  0
 24 29  1  0  0  0  0
 24 73  1  0  0  0  0
 24 74  1  0  0  0  0
 25 37  1  0  0  0  0
 25 75  1  0  0  0  0
 25 76  1  0  0  0  0
 26 31  1  0  0  0  0
 26 77  1  0  0  0  0
 26 78  1  0  0  0  0
 27 35  1  0  0  0  0
 27 79  1  0  0  0  0
 27 80  1  0  0  0  0
 28 36  1  0  0  0  0
 28 81  1  0  0  0  0
 28 82  1  0  0  0  0
 29 38  1  0  0  0  0
 29 83  1  0  0  0  0
 29 84  1  0  0  0  0
 30 39  1  0  0  0  0
 30 40  1  0  0  0  0
 30 85  1  0  0  0  0
 31 41  1  0  0  0  0
 31 86  1  0  0  0  0
 31 87  1  0  0  0  0
 32 88  1  0  0  0  0
 32 89  1  0  0  0  0
 32 90  1  0  0  0  0
 33 91  1  0  0  0  0
 33 92  1  0  0  0  0
 33 93  1  0  0  0  0
 34 94  1  0  0  0  0
 34 95  1  0  0  0  0
 34 96  1  0  0  0  0
 35 42  1  0  0  0  0
 35 97  1  0  0  0  0
 35 98  1  0  0  0  0
 36 43  1  0  0  0  0
 36 99  1  0  0  0  0
 36100  1  0  0  0  0
 37101  1  0  0  0  0
 37102  1  0  0  0  0
 38 44  1  0  0  0  0
 38103  1  0  0  0  0
 38104  1  0  0  0  0
 39105  1  0  0  0  0
 39106  1  0  0  0  0
 40108  1  0  0  0  0
 40109  1  0  0  0  0
 42 45  1  0  0  0  0
 42110  1  0  0  0  0
 42111  1  0  0  0  0
 43 46  1  0  0  0  0
 43112  1  0  0  0  0
 43113  1  0  0  0  0
 45115  1  0  0  0  0
 45116  1  0  0  0  0
 45117  1  0  0  0  0
 46118  1  0  0  0  0
 46119  1  0  0  0  0
 46120  1  0  0  0  0
M  CHG  2   6  -1   8   1
M  END
> <PUBCHEM_COMPOUND_CID>
130969

> <PUBCHEM_COMPOUND_CANONICALIZED>
1

> <PUBCHEM_CACTVS_COMPLEXITY>
769

> <PUBCHEM_CACTVS_HBOND_ACCEPTOR>
6

> <PUBCHEM_CACTVS_HBOND_DONOR>
2

> <PUBCHEM_CACTVS_ROTATABLE_BOND>
34

> <PUBCHEM_CACTVS_SUBSKEYS>
AAADcfB/OAIAAAAAAAAAAAAAAAAAAAAAAAAAAAAAAAAAAAAAAAAAHgAQACAACCjhgAYCAAPAARAIQAEQEIAAAAAAAAAAAIEIAAACQBIAgAAUAAACFgCQAAEYiICAAAAAAAAAAAAAAAAAAAAAAAAAAAAAAA==

> <PUBCHEM_IUPAC_OPENEYE_NAME>
2,3-bis(tetradecanoylamino)propyl 2-(trimethylammonio)ethyl phosphate

> <PUBCHEM_IUPAC_CAS_NAME>
2,3-bis(1-oxotetradecylamino)propyl 2-(trimethylammonio)ethyl phosphate

> <PUBCHEM_IUPAC_NAME>
2,3-bis(tetradecanoylamino)propyl 2-(trimethylazaniumyl)ethyl phosphate

> <PUBCHEM_IUPAC_SYSTEMATIC_NAME>
2,3-bis(tetradecanoylamino)propyl 2-(trimethylazaniumyl)ethyl phosphate

> <PUBCHEM_IUPAC_TRADITIONAL_NAME>
2,3-bis(tetradecanoylamino)propyl 2-(trimethylammonio)ethyl phosphate

> <PUBCHEM_IUPAC_INCHI>
InChI=1S/C36H74N3O6P/c1-6-8-10-12-14-16-18-20-22-24-26-28-35(40)37-32-34(33-45-46(42,43)44-31-30-39(3,4)5)38-36(41)29-27-25-23-21-19-17-15-13-11-9-7-2/h34H,6-33H2,1-5H3,(H2-,37,38,40,41,42,43)

> <PUBCHEM_IUPAC_INCHIKEY>
BLCRPWCTEAFGSY-UHFFFAOYSA-N

> <PUBCHEM_XLOGP3_AA>
10.1

> <PUBCHEM_EXACT_MASS>
675.532

> <PUBCHEM_MOLECULAR_FORMULA>
C36H74N3O6P

> <PUBCHEM_MOLECULAR_WEIGHT>
675.977

> <PUBCHEM_OPENEYE_CAN_SMILES>
CCCCCCCCCCCCCC(=O)NCC(COP(=O)([O-])OCC[N+](C)(C)C)NC(=O)CCCCCCCCCCCCC

> <PUBCHEM_OPENEYE_ISO_SMILES>
CCCCCCCCCCCCCC(=O)NCC(COP(=O)([O-])OCC[N+](C)(C)C)NC(=O)CCCCCCCCCCCCC

> <PUBCHEM_CACTVS_TPSA>
117

> <PUBCHEM_MONOISOTOPIC_WEIGHT>
675.532

> <PUBCHEM_TOTAL_CHARGE>
0

> <PUBCHEM_HEAVY_ATOM_COUNT>
46

> <PUBCHEM_ATOM_DEF_STEREO_COUNT>
0

> <PUBCHEM_ATOM_UDEF_STEREO_COUNT>
1

> <PUBCHEM_BOND_DEF_STEREO_COUNT>
0

> <PUBCHEM_BOND_UDEF_STEREO_COUNT>
0

> <PUBCHEM_ISOTOPIC_ATOM_COUNT>
0

> <PUBCHEM_COMPONENT_COUNT>
1

> <PUBCHEM_CACTVS_TAUTO_COUNT>
4

> <PUBCHEM_COORDINATE_TYPE>
1
5
255

> <PUBCHEM_BONDANNOTATIONS>
30  85  3

$$$$
